# generated using pymatgen
data_Ag11Hg9
_symmetry_space_group_name_H-M   'P 1'
_cell_length_a   3.21911161
_cell_length_b   3.21915558
_cell_length_c   46.74252748
_cell_angle_alpha   89.95646412
_cell_angle_beta   90.04383045
_cell_angle_gamma   120.00386174
_symmetry_Int_Tables_number   1
_chemical_formula_structural   Ag11Hg9
_chemical_formula_sum   'Ag11 Hg9'
_cell_volume   419.47275194
_cell_formula_units_Z   1
loop_
 _symmetry_equiv_pos_site_id
 _symmetry_equiv_pos_as_xyz
  1  'x, y, z'
loop_
 _atom_site_type_symbol
 _atom_site_label
 _atom_site_symmetry_multiplicity
 _atom_site_fract_x
 _atom_site_fract_y
 _atom_site_fract_z
 _atom_site_occupancy
  Ag  Ag0  1  0.333392  0.666692  0.725422  1
  Ag  Ag1  1  0.333274  0.666772  0.922448  1
  Ag  Ag2  1  0.666570  0.333323  0.178313  1
  Ag  Ag3  1  0.666705  0.333330  0.276069  1
  Ag  Ag4  1  0.666680  0.333389  0.375070  1
  Ag  Ag5  1  0.666693  0.333439  0.475295  1
  Ag  Ag6  1  0.666545  0.333454  0.677264  1
  Ag  Ag7  1  0.666743  0.333334  0.773604  1
  Ag  Ag8  1  0.666578  0.333436  0.874830  1
  Ag  Ag9  1  0.666695  0.333340  0.969411  1
  Ag  Ag10  1  0.666662  0.333374  0.575817  1
  Hg  Hg11  1  0.333560  0.666583  0.019043  1
  Hg  Hg12  1  0.333222  0.666860  0.129358  1
  Hg  Hg13  1  0.333400  0.666736  0.325489  1
  Hg  Hg14  1  0.333305  0.666723  0.525611  1
  Hg  Hg15  1  0.333354  0.666645  0.226869  1
  Hg  Hg16  1  0.333359  0.666739  0.425077  1
  Hg  Hg17  1  0.333323  0.666732  0.824453  1
  Hg  Hg18  1  0.333296  0.666743  0.626297  1
  Hg  Hg19  1  0.666645  0.333356  0.074260  1
