# generated using pymatgen
data_Gd2CuO4
_symmetry_space_group_name_H-M   'P 1'
_cell_length_a   5.52385401
_cell_length_b   5.51943685
_cell_length_c   6.55743085
_cell_angle_alpha   90.00000000
_cell_angle_beta   113.55749464
_cell_angle_gamma   90.00000000
_symmetry_Int_Tables_number   1
_chemical_formula_structural   Gd2CuO4
_chemical_formula_sum   'Gd4 Cu2 O8'
_cell_volume   183.26465527
_cell_formula_units_Z   2
loop_
 _symmetry_equiv_pos_site_id
 _symmetry_equiv_pos_as_xyz
  1  'x, y, z'
loop_
 _atom_site_type_symbol
 _atom_site_label
 _atom_site_symmetry_multiplicity
 _atom_site_fract_x
 _atom_site_fract_y
 _atom_site_fract_z
 _atom_site_occupancy
  Gd  Gd0  1  0.156654  0.502938  0.302883  1
  Gd  Gd1  1  0.656654  0.997062  0.302883  1
  Gd  Gd2  1  0.343346  0.002938  0.697117  1
  Gd  Gd3  1  0.843346  0.497062  0.697117  1
  Cu  Cu4  1  0.000000  0.000000  0.000000  1
  Cu  Cu5  1  0.500000  0.500000  0.000000  1
  O  O6  1  0.003979  0.248997  0.497259  1
  O  O7  1  0.224681  0.272510  0.994961  1
  O  O8  1  0.275319  0.772510  0.005039  1
  O  O9  1  0.496021  0.748997  0.502741  1
  O  O10  1  0.503979  0.251003  0.497259  1
  O  O11  1  0.724681  0.227490  0.994961  1
  O  O12  1  0.775319  0.727490  0.005039  1
  O  O13  1  0.996021  0.751003  0.502741  1
