# generated using pymatgen
data_GdMn2O5
_symmetry_space_group_name_H-M   'P 1'
_cell_length_a   5.80304351
_cell_length_b   7.44479186
_cell_length_c   8.63177165
_cell_angle_alpha   90.00000000
_cell_angle_beta   90.00000000
_cell_angle_gamma   90.00000000
_symmetry_Int_Tables_number   1
_chemical_formula_structural   GdMn2O5
_chemical_formula_sum   'Gd4 Mn8 O20'
_cell_volume   372.91369250
_cell_formula_units_Z   4
loop_
 _symmetry_equiv_pos_site_id
 _symmetry_equiv_pos_as_xyz
  1  'x, y, z'
loop_
 _atom_site_type_symbol
 _atom_site_label
 _atom_site_symmetry_multiplicity
 _atom_site_fract_x
 _atom_site_fract_y
 _atom_site_fract_z
 _atom_site_occupancy
  Gd  Gd0  1  0.000000  0.860237  0.828529  1
  Gd  Gd1  1  0.000000  0.139763  0.171471  1
  Gd  Gd2  1  0.000000  0.360237  0.671471  1
  Gd  Gd3  1  0.000000  0.639763  0.328529  1
  Mn  Mn4  1  0.745039  0.000000  0.500000  1
  Mn  Mn5  1  0.500000  0.589498  0.650164  1
  Mn  Mn6  1  0.500000  0.410502  0.349836  1
  Mn  Mn7  1  0.500000  0.910502  0.150164  1
  Mn  Mn8  1  0.500000  0.089498  0.849836  1
  Mn  Mn9  1  0.254961  0.500000  0.000000  1
  Mn  Mn10  1  0.745039  0.500000  0.000000  1
  Mn  Mn11  1  0.254961  0.000000  0.500000  1
  O  O12  1  0.000000  0.338419  0.945140  1
  O  O13  1  0.727938  0.000000  0.000000  1
  O  O14  1  0.272062  0.000000  0.000000  1
  O  O15  1  0.500000  0.152006  0.434859  1
  O  O16  1  0.000000  0.161581  0.445140  1
  O  O17  1  0.727938  0.500000  0.500000  1
  O  O18  1  0.000000  0.838419  0.554860  1
  O  O19  1  0.757081  0.602825  0.793016  1
  O  O20  1  0.242919  0.102825  0.706984  1
  O  O21  1  0.500000  0.652006  0.065141  1
  O  O22  1  0.500000  0.347994  0.934859  1
  O  O23  1  0.000000  0.661581  0.054860  1
  O  O24  1  0.757081  0.897175  0.293016  1
  O  O25  1  0.757081  0.397175  0.206984  1
  O  O26  1  0.757081  0.102825  0.706984  1
  O  O27  1  0.242919  0.602825  0.793016  1
  O  O28  1  0.272062  0.500000  0.500000  1
  O  O29  1  0.242919  0.897175  0.293016  1
  O  O30  1  0.242919  0.397175  0.206984  1
  O  O31  1  0.500000  0.847994  0.565141  1
