# generated using pymatgen
data_Gd2Ni7
_symmetry_space_group_name_H-M   'P 1'
_cell_length_a   12.34721199
_cell_length_b   12.34721204
_cell_length_c   12.34721230
_cell_angle_alpha   23.11242378
_cell_angle_beta   23.11242325
_cell_angle_gamma   23.11242432
_symmetry_Int_Tables_number   1
_chemical_formula_structural   Gd2Ni7
_chemical_formula_sum   'Gd4 Ni14'
_cell_volume   254.59167744
_cell_formula_units_Z   2
loop_
 _symmetry_equiv_pos_site_id
 _symmetry_equiv_pos_as_xyz
  1  'x, y, z'
loop_
 _atom_site_type_symbol
 _atom_site_label
 _atom_site_symmetry_multiplicity
 _atom_site_fract_x
 _atom_site_fract_y
 _atom_site_fract_z
 _atom_site_occupancy
  Gd  Gd0  1  0.949114  0.949114  0.949114  1
  Gd  Gd1  1  0.147271  0.147271  0.147271  1
  Gd  Gd2  1  0.050886  0.050886  0.050886  1
  Gd  Gd3  1  0.852729  0.852729  0.852729  1
  Ni  Ni4  1  0.721563  0.721563  0.721563  1
  Ni  Ni5  1  0.387897  0.387897  0.387897  1
  Ni  Ni6  1  0.109725  0.609742  0.609742  1
  Ni  Ni7  1  0.609742  0.109725  0.609742  1
  Ni  Ni8  1  0.390258  0.390258  0.890275  1
  Ni  Ni9  1  0.612103  0.612103  0.612103  1
  Ni  Ni10  1  0.500000  0.000000  0.500000  1
  Ni  Ni11  1  0.890275  0.390258  0.390258  1
  Ni  Ni12  1  0.500000  0.500000  0.500000  1
  Ni  Ni13  1  0.390258  0.890275  0.390258  1
  Ni  Ni14  1  0.278437  0.278437  0.278437  1
  Ni  Ni15  1  0.609742  0.609742  0.109725  1
  Ni  Ni16  1  0.000000  0.500000  0.500000  1
  Ni  Ni17  1  0.500000  0.500000  0.000000  1
