# generated using pymatgen
data_GdOs2
_symmetry_space_group_name_H-M   'P 1'
_cell_length_a   5.35593979
_cell_length_b   5.35593979
_cell_length_c   8.89932222
_cell_angle_alpha   90.00000000
_cell_angle_beta   90.00000000
_cell_angle_gamma   120.24536036
_symmetry_Int_Tables_number   1
_chemical_formula_structural   GdOs2
_chemical_formula_sum   'Gd4 Os8'
_cell_volume   220.53618717
_cell_formula_units_Z   4
loop_
 _symmetry_equiv_pos_site_id
 _symmetry_equiv_pos_as_xyz
  1  'x, y, z'
loop_
 _atom_site_type_symbol
 _atom_site_label
 _atom_site_symmetry_multiplicity
 _atom_site_fract_x
 _atom_site_fract_y
 _atom_site_fract_z
 _atom_site_occupancy
  Gd  Gd0  1  0.666668  0.333332  0.565945  1
  Gd  Gd1  1  0.333332  0.666668  0.434055  1
  Gd  Gd2  1  0.333332  0.666668  0.065945  1
  Gd  Gd3  1  0.666668  0.333332  0.934055  1
  Os  Os4  1  0.000000  0.000000  0.500000  1
  Os  Os5  1  0.000000  0.000000  0.000000  1
  Os  Os6  1  0.171542  0.343117  0.750000  1
  Os  Os7  1  0.171580  0.828420  0.750000  1
  Os  Os8  1  0.656883  0.828458  0.750000  1
  Os  Os9  1  0.828458  0.656883  0.250000  1
  Os  Os10  1  0.828420  0.171580  0.250000  1
  Os  Os11  1  0.343117  0.171542  0.250000  1
