# generated using pymatgen
data_GdPt
_symmetry_space_group_name_H-M   'P 1'
_cell_length_a   4.51924980
_cell_length_b   5.65237890
_cell_length_c   7.20360007
_cell_angle_alpha   90.00000000
_cell_angle_beta   90.00000000
_cell_angle_gamma   90.00000000
_symmetry_Int_Tables_number   1
_chemical_formula_structural   GdPt
_chemical_formula_sum   'Gd4 Pt4'
_cell_volume   184.01244997
_cell_formula_units_Z   4
loop_
 _symmetry_equiv_pos_site_id
 _symmetry_equiv_pos_as_xyz
  1  'x, y, z'
loop_
 _atom_site_type_symbol
 _atom_site_label
 _atom_site_symmetry_multiplicity
 _atom_site_fract_x
 _atom_site_fract_y
 _atom_site_fract_z
 _atom_site_occupancy
  Gd  Gd0  1  0.250000  0.141564  0.182329  1
  Gd  Gd1  1  0.750000  0.858436  0.817671  1
  Gd  Gd2  1  0.750000  0.641564  0.317671  1
  Gd  Gd3  1  0.250000  0.358436  0.682329  1
  Pt  Pt4  1  0.250000  0.655692  0.043983  1
  Pt  Pt5  1  0.750000  0.344308  0.956017  1
  Pt  Pt6  1  0.750000  0.155692  0.456017  1
  Pt  Pt7  1  0.250000  0.844308  0.543983  1
