# generated using pymatgen
data_Gd2Ti2O7
_symmetry_space_group_name_H-M   'P 1'
_cell_length_a   7.25333460
_cell_length_b   7.25333459
_cell_length_c   7.25333459
_cell_angle_alpha   59.99999996
_cell_angle_beta   59.99999998
_cell_angle_gamma   59.99999996
_symmetry_Int_Tables_number   1
_chemical_formula_structural   Gd2Ti2O7
_chemical_formula_sum   'Gd4 Ti4 O14'
_cell_volume   269.83491050
_cell_formula_units_Z   2
loop_
 _symmetry_equiv_pos_site_id
 _symmetry_equiv_pos_as_xyz
  1  'x, y, z'
loop_
 _atom_site_type_symbol
 _atom_site_label
 _atom_site_symmetry_multiplicity
 _atom_site_fract_x
 _atom_site_fract_y
 _atom_site_fract_z
 _atom_site_occupancy
  O  O0  1  0.625000  0.625000  0.625000  1
  O  O1  1  0.375000  0.375000  0.375000  1
  O  O2  1  0.327837  0.922163  0.922163  1
  O  O3  1  0.077837  0.672163  0.672163  1
  O  O4  1  0.922163  0.327837  0.922163  1
  O  O5  1  0.922163  0.922163  0.327837  1
  O  O6  1  0.327837  0.327837  0.922163  1
  O  O7  1  0.327837  0.922163  0.327837  1
  O  O8  1  0.922163  0.327837  0.327837  1
  O  O9  1  0.672163  0.672163  0.077837  1
  O  O10  1  0.077837  0.077837  0.672163  1
  O  O11  1  0.672163  0.077837  0.077837  1
  O  O12  1  0.672163  0.077837  0.672163  1
  O  O13  1  0.077837  0.672163  0.077837  1
  Ti  Ti14  1  0.000000  0.500000  0.000000  1
  Ti  Ti15  1  0.500000  0.000000  0.000000  1
  Ti  Ti16  1  0.000000  0.000000  0.500000  1
  Ti  Ti17  1  0.000000  0.000000  0.000000  1
  Gd  Gd18  1  0.500000  0.000000  0.500000  1
  Gd  Gd19  1  0.000000  0.500000  0.500000  1
  Gd  Gd20  1  0.500000  0.500000  0.000000  1
  Gd  Gd21  1  0.500000  0.500000  0.500000  1
