# generated using pymatgen
data_Gd2V2O7
_symmetry_space_group_name_H-M   'P 1'
_cell_length_a   7.20387676
_cell_length_b   7.20405161
_cell_length_c   7.20389861
_cell_angle_alpha   60.00512448
_cell_angle_beta   60.00437655
_cell_angle_gamma   60.00519706
_symmetry_Int_Tables_number   1
_chemical_formula_structural   Gd2V2O7
_chemical_formula_sum   'Gd4 V4 O14'
_cell_volume   264.38932831
_cell_formula_units_Z   2
loop_
 _symmetry_equiv_pos_site_id
 _symmetry_equiv_pos_as_xyz
  1  'x, y, z'
loop_
 _atom_site_type_symbol
 _atom_site_label
 _atom_site_symmetry_multiplicity
 _atom_site_fract_x
 _atom_site_fract_y
 _atom_site_fract_z
 _atom_site_occupancy
  Gd  Gd0  1  0.500001  0.500003  0.999997  1
  Gd  Gd1  1  0.500003  0.000001  0.499998  1
  Gd  Gd2  1  0.000001  0.499996  0.499999  1
  Gd  Gd3  1  0.500004  0.499996  0.500000  1
  V  V4  1  -0.000000  -0.000001  0.000002  1
  V  V5  1  0.499999  0.000002  0.999999  1
  V  V6  1  0.999997  0.500003  -0.000001  1
  V  V7  1  0.000004  0.999998  0.499998  1
  O  O8  1  0.670719  0.079287  0.079284  1
  O  O9  1  0.920692  0.329298  0.329312  1
  O  O10  1  0.079293  0.670711  0.079287  1
  O  O11  1  0.079285  0.079284  0.670717  1
  O  O12  1  0.670707  0.079299  0.670697  1
  O  O13  1  0.670701  0.670702  0.079298  1
  O  O14  1  0.375000  0.374986  0.374982  1
  O  O15  1  0.920713  0.920715  0.329285  1
  O  O16  1  0.329291  0.920701  0.329304  1
  O  O17  1  0.329297  0.329300  0.920704  1
  O  O18  1  0.920705  0.329290  0.920715  1
  O  O19  1  0.625002  0.625016  0.625015  1
  O  O20  1  0.079307  0.670701  0.670689  1
  O  O21  1  0.329279  0.920713  0.920718  1
