# generated using pymatgen
data_Gd2W2O9
_symmetry_space_group_name_H-M   'P 1'
_cell_length_a   7.43247666
_cell_length_b   7.19472530
_cell_length_c   6.81499443
_cell_angle_alpha   96.81817808
_cell_angle_beta   95.07120149
_cell_angle_gamma   69.97555871
_symmetry_Int_Tables_number   1
_chemical_formula_structural   Gd2W2O9
_chemical_formula_sum   'Gd4 W4 O18'
_cell_volume   339.53135604
_cell_formula_units_Z   2
loop_
 _symmetry_equiv_pos_site_id
 _symmetry_equiv_pos_as_xyz
  1  'x, y, z'
loop_
 _atom_site_type_symbol
 _atom_site_label
 _atom_site_symmetry_multiplicity
 _atom_site_fract_x
 _atom_site_fract_y
 _atom_site_fract_z
 _atom_site_occupancy
  Gd  Gd0  1  0.154711  0.258647  0.846867  1
  Gd  Gd1  1  0.384187  0.280707  0.383130  1
  Gd  Gd2  1  0.615813  0.719293  0.616870  1
  Gd  Gd3  1  0.845289  0.741353  0.153133  1
  W  W4  1  0.057404  0.734064  0.727995  1
  W  W5  1  0.362838  0.791943  0.157782  1
  W  W6  1  0.637162  0.208057  0.842218  1
  W  W7  1  0.942596  0.265936  0.272005  1
  O  O8  1  0.093967  0.228234  0.502515  1
  O  O9  1  0.203187  0.063454  0.142001  1
  O  O10  1  0.091723  0.425839  0.185220  1
  O  O11  1  0.247685  0.496913  0.664970  1
  O  O12  1  0.144810  0.729071  0.030368  1
  O  O13  1  0.174002  0.922392  0.732315  1
  O  O14  1  0.468181  0.087231  0.684225  1
  O  O15  1  0.376141  0.639425  0.361072  1
  O  O16  1  0.462789  0.301534  0.035928  1
  O  O17  1  0.537211  0.698466  0.964072  1
  O  O18  1  0.623859  0.360575  0.638928  1
  O  O19  1  0.531819  0.912769  0.315775  1
  O  O20  1  0.825998  0.077608  0.267685  1
  O  O21  1  0.855190  0.270929  0.969632  1
  O  O22  1  0.752315  0.503087  0.335030  1
  O  O23  1  0.908277  0.574161  0.814780  1
  O  O24  1  0.796813  0.936546  0.857999  1
  O  O25  1  0.906033  0.771766  0.497485  1
