# generated using pymatgen
data_Gd3MnB7
_symmetry_space_group_name_H-M   'P 1'
_cell_length_a   8.13922141
_cell_length_b   8.13922141
_cell_length_c   9.37076221
_cell_angle_alpha   90.00000000
_cell_angle_beta   90.00000000
_cell_angle_gamma   24.45962412
_symmetry_Int_Tables_number   1
_chemical_formula_structural   Gd3MnB7
_chemical_formula_sum   'Gd6 Mn2 B14'
_cell_volume   257.03686880
_cell_formula_units_Z   2
loop_
 _symmetry_equiv_pos_site_id
 _symmetry_equiv_pos_as_xyz
  1  'x, y, z'
loop_
 _atom_site_type_symbol
 _atom_site_label
 _atom_site_symmetry_multiplicity
 _atom_site_fract_x
 _atom_site_fract_y
 _atom_site_fract_z
 _atom_site_occupancy
  Gd  Gd0  1  0.104225  0.104225  0.061405  1
  Gd  Gd1  1  0.895774  0.895774  0.561405  1
  Gd  Gd2  1  0.895774  0.895774  0.938595  1
  Gd  Gd3  1  0.104225  0.104225  0.438594  1
  Gd  Gd4  1  0.758529  0.758529  0.250000  1
  Gd  Gd5  1  0.241471  0.241471  0.750001  1
  Mn  Mn6  1  0.945898  0.945898  0.250000  1
  Mn  Mn7  1  0.054102  0.054102  0.750001  1
  B  B8  1  0.537758  0.537758  0.250000  1
  B  B9  1  0.462242  0.462242  0.750001  1
  B  B10  1  0.272915  0.272915  0.030984  1
  B  B11  1  0.727084  0.727084  0.530983  1
  B  B12  1  0.727084  0.727084  0.969017  1
  B  B13  1  0.272915  0.272915  0.469018  1
  B  B14  1  0.369979  0.369979  0.346860  1
  B  B15  1  0.630021  0.630021  0.846861  1
  B  B16  1  0.630021  0.630021  0.653140  1
  B  B17  1  0.369979  0.369979  0.153139  1
  B  B18  1  0.477234  0.477234  0.401272  1
  B  B19  1  0.522766  0.522766  0.901272  1
  B  B20  1  0.522766  0.522766  0.598729  1
  B  B21  1  0.477234  0.477234  0.098729  1
