# generated using pymatgen
data_Gd2Mo4O15
_symmetry_space_group_name_H-M   'P 1'
_cell_length_a   9.47338446
_cell_length_b   11.07848463
_cell_length_c   11.63770366
_cell_angle_alpha   104.49261355
_cell_angle_beta   109.07548148
_cell_angle_gamma   108.99989779
_symmetry_Int_Tables_number   1
_chemical_formula_structural   Gd2Mo4O15
_chemical_formula_sum   'Gd6 Mo12 O45'
_cell_volume   1000.72986875
_cell_formula_units_Z   3
loop_
 _symmetry_equiv_pos_site_id
 _symmetry_equiv_pos_as_xyz
  1  'x, y, z'
loop_
 _atom_site_type_symbol
 _atom_site_label
 _atom_site_symmetry_multiplicity
 _atom_site_fract_x
 _atom_site_fract_y
 _atom_site_fract_z
 _atom_site_occupancy
  Gd  Gd0  1  0.764933  0.775036  0.824905  1
  Gd  Gd1  1  0.785931  0.945008  0.411044  1
  Gd  Gd2  1  0.214069  0.054992  0.588956  1
  Gd  Gd3  1  0.235067  0.224964  0.175095  1
  Gd  Gd4  1  0.335015  0.658597  0.797242  1
  Gd  Gd5  1  0.664985  0.341403  0.202758  1
  Mo  Mo6  1  0.583704  0.221739  0.480186  1
  Mo  Mo7  1  0.085920  0.311087  0.448429  1
  Mo  Mo8  1  0.090817  0.533581  0.182191  1
  Mo  Mo9  1  0.066905  0.869601  0.202124  1
  Mo  Mo10  1  0.909183  0.466419  0.817809  1
  Mo  Mo11  1  0.522592  0.435204  0.866661  1
  Mo  Mo12  1  0.265699  0.982109  0.918454  1
  Mo  Mo13  1  0.734301  0.017891  0.081546  1
  Mo  Mo14  1  0.914080  0.688913  0.551571  1
  Mo  Mo15  1  0.477408  0.564796  0.133339  1
  Mo  Mo16  1  0.416296  0.778262  0.519814  1
  Mo  Mo17  1  0.933095  0.130399  0.797876  1
  O  O18  1  0.148877  0.745056  0.223386  1
  O  O19  1  0.547128  0.574263  0.802012  1
  O  O20  1  0.334132  0.284064  0.751458  1
  O  O21  1  0.754655  0.380599  0.618945  1
  O  O22  1  0.245345  0.619401  0.381055  1
  O  O23  1  0.102955  0.696287  0.661263  1
  O  O24  1  0.780174  0.987170  0.800772  1
  O  O25  1  0.851123  0.254944  0.776614  1
  O  O26  1  0.657860  0.094661  0.449852  1
  O  O27  1  0.474033  0.734415  0.662120  1
  O  O28  1  0.414659  0.558306  0.958215  1
  O  O29  1  0.775460  0.693292  0.624969  1
  O  O30  1  0.325312  0.609890  0.164136  1
  O  O31  1  0.665868  0.715936  0.248542  1
  O  O32  1  0.414821  0.163002  0.520889  1
  O  O33  1  0.383359  0.144720  0.066262  1
  O  O34  1  0.880819  0.789537  0.050679  1
  O  O35  1  0.052069  0.917914  0.887234  1
  O  O36  1  0.333407  0.852719  0.940723  1
  O  O37  1  0.119181  0.210463  0.949321  1
  O  O38  1  0.616641  0.855280  0.933738  1
  O  O39  1  0.219826  0.012830  0.199228  1
  O  O40  1  0.285838  0.017157  0.780904  1
  O  O41  1  0.111721  0.379217  0.167325  1
  O  O42  1  0.947931  0.082086  0.112766  1
  O  O43  1  0.000000  0.500000  0.000000  1
  O  O44  1  0.224540  0.306708  0.375031  1
  O  O45  1  0.193254  0.464576  0.597025  1
  O  O46  1  0.969216  0.065998  0.657243  1
  O  O47  1  0.095340  0.507526  0.801540  1
  O  O48  1  0.674688  0.390110  0.835864  1
  O  O49  1  0.585179  0.836998  0.479111  1
  O  O50  1  0.452872  0.425737  0.197988  1
  O  O51  1  0.714162  0.982843  0.219096  1
  O  O52  1  0.806746  0.535424  0.402975  1
  O  O53  1  0.904660  0.492474  0.198460  1
  O  O54  1  0.888279  0.620783  0.832675  1
  O  O55  1  0.033721  0.157054  0.487741  1
  O  O56  1  0.585341  0.441694  0.041785  1
  O  O57  1  0.897045  0.303713  0.338737  1
  O  O58  1  0.666593  0.147281  0.059277  1
  O  O59  1  0.525967  0.265585  0.337880  1
  O  O60  1  0.030784  0.934002  0.342757  1
  O  O61  1  0.342140  0.905339  0.550148  1
  O  O62  1  0.966279  0.842946  0.512259  1
