# generated using pymatgen
data_Gd3Pd2
_symmetry_space_group_name_H-M   'P 1'
_cell_length_a   3.96115536
_cell_length_b   7.91002996
_cell_length_c   7.91002996
_cell_angle_alpha   90.00000000
_cell_angle_beta   90.00000000
_cell_angle_gamma   90.00000000
_symmetry_Int_Tables_number   1
_chemical_formula_structural   Gd3Pd2
_chemical_formula_sum   'Gd6 Pd4'
_cell_volume   247.84384214
_cell_formula_units_Z   2
loop_
 _symmetry_equiv_pos_site_id
 _symmetry_equiv_pos_as_xyz
  1  'x, y, z'
loop_
 _atom_site_type_symbol
 _atom_site_label
 _atom_site_symmetry_multiplicity
 _atom_site_fract_x
 _atom_site_fract_y
 _atom_site_fract_z
 _atom_site_occupancy
  Pd  Pd0  1  0.000000  0.631472  0.131472  1
  Pd  Pd1  1  0.000000  0.868528  0.631472  1
  Pd  Pd2  1  0.000000  0.131472  0.368528  1
  Pd  Pd3  1  0.000000  0.368528  0.868528  1
  Gd  Gd4  1  0.500000  0.665132  0.834868  1
  Gd  Gd5  1  0.500000  0.834868  0.334868  1
  Gd  Gd6  1  0.500000  0.334868  0.165132  1
  Gd  Gd7  1  0.500000  0.165132  0.665132  1
  Gd  Gd8  1  0.000000  0.500000  0.500000  1
  Gd  Gd9  1  0.000000  0.000000  0.000000  1
