# generated using pymatgen
data_Gd3ReO7
_symmetry_space_group_name_H-M   'P 1'
_cell_length_a   6.55066037
_cell_length_b   6.55066037
_cell_length_c   7.50182905
_cell_angle_alpha   90.00000000
_cell_angle_beta   90.00000000
_cell_angle_gamma   110.27820618
_symmetry_Int_Tables_number   1
_chemical_formula_structural   Gd3ReO7
_chemical_formula_sum   'Gd6 Re2 O14'
_cell_volume   301.96027573
_cell_formula_units_Z   2
loop_
 _symmetry_equiv_pos_site_id
 _symmetry_equiv_pos_as_xyz
  1  'x, y, z'
loop_
 _atom_site_type_symbol
 _atom_site_label
 _atom_site_symmetry_multiplicity
 _atom_site_fract_x
 _atom_site_fract_y
 _atom_site_fract_z
 _atom_site_occupancy
  O  O0  1  0.345235  0.610778  0.750000  1
  O  O1  1  0.654765  0.389222  0.250000  1
  O  O2  1  0.610778  0.345235  0.750000  1
  O  O3  1  0.389222  0.654765  0.250000  1
  O  O4  1  0.067364  0.320010  0.029577  1
  O  O5  1  0.932636  0.679990  0.529577  1
  O  O6  1  0.320010  0.067364  0.470423  1
  O  O7  1  0.679990  0.932636  0.970423  1
  O  O8  1  0.951172  0.951172  0.250000  1
  O  O9  1  0.048828  0.048828  0.750000  1
  O  O10  1  0.320010  0.067364  0.029577  1
  O  O11  1  0.679990  0.932636  0.529577  1
  O  O12  1  0.067364  0.320010  0.470423  1
  O  O13  1  0.932636  0.679990  0.970423  1
  Gd  Gd14  1  0.500000  0.500000  0.000000  1
  Gd  Gd15  1  0.500000  0.500000  0.500000  1
  Gd  Gd16  1  0.979444  0.444785  0.750000  1
  Gd  Gd17  1  0.020556  0.555215  0.250000  1
  Gd  Gd18  1  0.444785  0.979444  0.750000  1
  Gd  Gd19  1  0.555215  0.020556  0.250000  1
  Re  Re20  1  0.000000  0.000000  0.000000  1
  Re  Re21  1  0.000000  0.000000  0.500000  1
