# generated using pymatgen
data_Gd3RuO7
_symmetry_space_group_name_H-M   'P 1'
_cell_length_a   6.48977871
_cell_length_b   6.48977872
_cell_length_c   7.48788690
_cell_angle_alpha   90.00000000
_cell_angle_beta   90.00000000
_cell_angle_gamma   110.68409907
_symmetry_Int_Tables_number   1
_chemical_formula_structural   Gd3RuO7
_chemical_formula_sum   'Gd6 Ru2 O14'
_cell_volume   295.04100989
_cell_formula_units_Z   2
loop_
 _symmetry_equiv_pos_site_id
 _symmetry_equiv_pos_as_xyz
  1  'x, y, z'
loop_
 _atom_site_type_symbol
 _atom_site_label
 _atom_site_symmetry_multiplicity
 _atom_site_fract_x
 _atom_site_fract_y
 _atom_site_fract_z
 _atom_site_occupancy
  O  O0  1  0.587219  0.587219  0.750000  1
  O  O1  1  0.412781  0.412781  0.250000  1
  O  O2  1  0.108154  0.843388  0.750000  1
  O  O3  1  0.891846  0.156612  0.250000  1
  O  O4  1  0.843388  0.108154  0.750000  1
  O  O5  1  0.156612  0.891846  0.250000  1
  O  O6  1  0.182821  0.438152  0.961147  1
  O  O7  1  0.817179  0.561848  0.461147  1
  O  O8  1  0.438152  0.182821  0.961147  1
  O  O9  1  0.561848  0.817179  0.461147  1
  O  O10  1  0.182821  0.438152  0.538853  1
  O  O11  1  0.817179  0.561848  0.038853  1
  O  O12  1  0.561848  0.817179  0.038853  1
  O  O13  1  0.438152  0.182821  0.538853  1
  Ru  Ru14  1  0.500000  0.500000  0.500000  1
  Ru  Ru15  1  0.500000  0.500000  0.000000  1
  Gd  Gd16  1  0.926177  0.478197  0.750000  1
  Gd  Gd17  1  0.073823  0.521803  0.250000  1
  Gd  Gd18  1  0.478197  0.926177  0.750000  1
  Gd  Gd19  1  0.521803  0.073823  0.250000  1
  Gd  Gd20  1  0.000000  0.000000  0.500000  1
  Gd  Gd21  1  0.000000  0.000000  0.000000  1
