# generated using pymatgen
data_Gd3Y5O12
_symmetry_space_group_name_H-M   'P 1'
_cell_length_a   9.31281724
_cell_length_b   9.32524122
_cell_length_c   9.31922624
_cell_angle_alpha   109.48460571
_cell_angle_beta   109.44858164
_cell_angle_gamma   109.48087258
_symmetry_Int_Tables_number   1
_chemical_formula_structural   Gd3Y5O12
_chemical_formula_sum   'Gd6 Y10 O24'
_cell_volume   623.01276731
_cell_formula_units_Z   2
loop_
 _symmetry_equiv_pos_site_id
 _symmetry_equiv_pos_as_xyz
  1  'x, y, z'
loop_
 _atom_site_type_symbol
 _atom_site_label
 _atom_site_symmetry_multiplicity
 _atom_site_fract_x
 _atom_site_fract_y
 _atom_site_fract_z
 _atom_site_occupancy
  Gd  Gd0  1  0.749211  0.281142  0.531401  1
  Gd  Gd1  1  0.250282  0.717240  0.467111  1
  Gd  Gd2  1  0.250277  0.218691  0.967900  1
  Gd  Gd3  1  0.283564  0.532657  0.750951  1
  Gd  Gd4  1  0.217225  0.967899  0.250375  1
  Gd  Gd5  1  0.031219  0.750016  0.782185  1
  Y  Y6  1  0.501508  0.000725  0.999858  1
  Y  Y7  1  0.966040  0.249379  0.215892  1
  Y  Y8  1  0.782105  0.032693  0.750090  1
  Y  Y9  1  0.716935  0.467096  0.248724  1
  Y  Y10  1  0.749878  0.783570  0.033900  1
  Y  Y11  1  0.998100  0.499150  0.000119  1
  Y  Y12  1  0.500903  0.500936  0.500579  1
  Y  Y13  1  0.467903  0.250894  0.717919  1
  Y  Y14  1  0.999161  0.999405  0.499366  1
  Y  Y15  1  0.534136  0.749880  0.283521  1
  O  O16  1  0.760653  0.029314  0.489085  1
  O  O17  1  0.738886  0.228259  0.268047  1
  O  O18  1  0.274177  0.011607  0.042572  1
  O  O19  1  0.966490  0.509063  0.237263  1
  O  O20  1  0.468321  0.232337  0.460334  1
  O  O21  1  0.772183  0.728996  0.260974  1
  O  O22  1  0.039706  0.271659  0.010448  1
  O  O23  1  0.459839  0.470644  0.231306  1
  O  O24  1  0.728176  0.259312  0.772270  1
  O  O25  1  0.492798  0.764347  0.034879  1
  O  O26  1  0.007366  0.042163  0.271616  1
  O  O27  1  0.769015  0.541395  0.528315  1
  O  O28  1  0.512790  0.240004  0.968542  1
  O  O29  1  0.229331  0.455515  0.466057  1
  O  O30  1  0.270649  0.736674  0.226228  1
  O  O31  1  0.987135  0.958454  0.727133  1
  O  O32  1  0.544651  0.532422  0.771693  1
  O  O33  1  0.955811  0.726880  0.990100  1
  O  O34  1  0.533802  0.770408  0.542714  1
  O  O35  1  0.228200  0.268310  0.736523  1
  O  O36  1  0.030837  0.488702  0.763009  1
  O  O37  1  0.728340  0.988587  0.956945  1
  O  O38  1  0.239335  0.970405  0.512373  1
  O  O39  1  0.263065  0.773169  0.731682  1
