# generated using pymatgen
data_Gd2Zr2O7
_symmetry_space_group_name_H-M   'P 1'
_cell_length_a   7.53200479
_cell_length_b   7.61061790
_cell_length_c   15.08472183
_cell_angle_alpha   60.11381238
_cell_angle_beta   57.68427574
_cell_angle_gamma   57.96413747
_symmetry_Int_Tables_number   1
_chemical_formula_structural   Gd2Zr2O7
_chemical_formula_sum   'Gd6 Zr6 O21'
_cell_volume   591.01460172
_cell_formula_units_Z   3
loop_
 _symmetry_equiv_pos_site_id
 _symmetry_equiv_pos_as_xyz
  1  'x, y, z'
loop_
 _atom_site_type_symbol
 _atom_site_label
 _atom_site_symmetry_multiplicity
 _atom_site_fract_x
 _atom_site_fract_y
 _atom_site_fract_z
 _atom_site_occupancy
  Gd  Gd0  1  0.959876  0.535217  0.986419  1
  Gd  Gd1  1  0.468196  0.009821  0.990188  1
  Gd  Gd2  1  0.006664  0.015111  0.496640  1
  Gd  Gd3  1  0.512137  0.997746  0.517623  1
  Gd  Gd4  1  0.971583  0.483604  0.517817  1
  Gd  Gd5  1  0.994509  0.989129  0.748708  1
  Zr  Zr6  1  0.537682  0.984261  0.243566  1
  Zr  Zr7  1  0.522541  0.477085  0.012027  1
  Zr  Zr8  1  0.521638  0.525976  0.226898  1
  Zr  Zr9  1  0.542849  0.977533  0.745559  1
  Zr  Zr10  1  0.555141  0.502567  0.475077  1
  Zr  Zr11  1  0.487359  0.505776  0.759479  1
  O  O12  1  0.149253  0.116452  0.558715  1
  O  O13  1  0.448188  0.321606  0.191981  1
  O  O14  1  0.554076  0.659763  0.064075  1
  O  O15  1  0.449190  0.866732  0.184295  1
  O  O16  1  0.410345  0.436072  0.403983  1
  O  O17  1  0.538414  0.205775  0.583638  1
  O  O18  1  0.387957  0.848000  0.411938  1
  O  O19  1  0.153568  0.614684  0.804848  1
  O  O20  1  0.838480  0.403710  0.177851  1
  O  O21  1  0.883847  0.382888  0.422354  1
  O  O22  1  0.835850  0.836192  0.227948  1
  O  O23  1  0.525383  0.184795  0.800671  1
  O  O24  1  0.562569  0.598469  0.581810  1
  O  O25  1  0.403249  0.861452  0.705941  1
  O  O26  1  0.385831  0.386910  0.953172  1
  O  O27  1  0.449167  0.791926  0.902192  1
  O  O28  1  0.881256  0.837371  0.475761  1
  O  O29  1  0.843723  0.381470  0.700286  1
  O  O30  1  0.841916  0.344954  0.964232  1
  O  O31  1  0.871744  0.871971  0.680641  1
  O  O32  1  0.822318  0.900480  0.930918  1
