# generated using pymatgen
data_Gd7Ti8O26
_symmetry_space_group_name_H-M   'P 1'
_cell_length_a   7.21672182
_cell_length_b   14.47264799
_cell_length_c   12.43051042
_cell_angle_alpha   30.47189739
_cell_angle_beta   55.89210486
_cell_angle_gamma   61.34398330
_symmetry_Int_Tables_number   1
_chemical_formula_structural   Gd7Ti8O26
_chemical_formula_sum   'Gd7 Ti8 O26'
_cell_volume   545.11496105
_cell_formula_units_Z   1
loop_
 _symmetry_equiv_pos_site_id
 _symmetry_equiv_pos_as_xyz
  1  'x, y, z'
loop_
 _atom_site_type_symbol
 _atom_site_label
 _atom_site_symmetry_multiplicity
 _atom_site_fract_x
 _atom_site_fract_y
 _atom_site_fract_z
 _atom_site_occupancy
  Gd  Gd0  1  0.994743  0.253988  0.987653  1
  Gd  Gd1  1  0.984016  0.529902  0.980974  1
  Gd  Gd2  1  0.483196  0.995764  0.981773  1
  Gd  Gd3  1  0.007076  0.744628  0.027234  1
  Gd  Gd4  1  0.489003  0.488945  0.028322  1
  Gd  Gd5  1  0.998416  0.232083  0.513750  1
  Gd  Gd6  1  0.981714  0.765143  0.485909  1
  Ti  Ti7  1  0.020583  0.995809  0.488900  1
  Ti  Ti8  1  0.497164  0.290709  0.961196  1
  Ti  Ti9  1  0.974545  0.531515  0.491194  1
  Ti  Ti10  1  0.513438  0.746696  0.996922  1
  Ti  Ti11  1  0.551120  0.240479  0.487126  1
  Ti  Ti12  1  0.506431  0.500008  0.502294  1
  Ti  Ti13  1  0.486547  0.714244  0.537649  1
  Ti  Ti14  1  0.492967  0.993811  0.500618  1
  O  O15  1  0.198507  0.177455  0.183023  1
  O  O16  1  0.113399  0.503053  0.133320  1
  O  O17  1  0.571277  0.202077  0.175246  1
  O  O18  1  0.388803  0.217730  0.428445  1
  O  O19  1  0.199681  0.648332  0.217893  1
  O  O20  1  0.599019  0.495657  0.166556  1
  O  O21  1  0.165443  0.506654  0.580177  1
  O  O22  1  0.125128  0.005064  0.127351  1
  O  O23  1  0.543026  0.305409  0.570698  1
  O  O24  1  0.578083  0.692192  0.182029  1
  O  O25  1  0.853097  0.208493  0.408236  1
  O  O26  1  0.435830  0.721707  0.397120  1
  O  O27  1  0.171276  0.796102  0.573107  1
  O  O28  1  0.437843  0.282938  0.835530  1
  O  O29  1  0.831304  0.484269  0.441092  1
  O  O30  1  0.386980  0.501461  0.854513  1
  O  O31  1  0.174094  0.000489  0.577627  1
  O  O32  1  0.814853  0.316838  0.816314  1
  O  O33  1  0.814435  0.718287  0.411287  1
  O  O34  1  0.571455  0.816457  0.551003  1
  O  O35  1  0.420405  0.788946  0.834893  1
  O  O36  1  0.866727  0.503309  0.873449  1
  O  O37  1  0.810600  0.004025  0.432521  1
  O  O38  1  0.459844  0.996169  0.804219  1
  O  O39  1  0.833782  0.795373  0.825839  1
  O  O40  1  0.852863  0.000200  0.876142  1
