# generated using pymatgen
data_GdCu(MoO4)2
_symmetry_space_group_name_H-M   'P 1'
_cell_length_a   9.93289342
_cell_length_b   10.38201818
_cell_length_c   14.81329487
_cell_angle_alpha   90.00000000
_cell_angle_beta   90.00000000
_cell_angle_gamma   90.00000000
_symmetry_Int_Tables_number   1
_chemical_formula_structural   GdCu(MoO4)2
_chemical_formula_sum   'Gd8 Cu8 Mo16 O64'
_cell_volume   1527.59851824
_cell_formula_units_Z   8
loop_
 _symmetry_equiv_pos_site_id
 _symmetry_equiv_pos_as_xyz
  1  'x, y, z'
loop_
 _atom_site_type_symbol
 _atom_site_label
 _atom_site_symmetry_multiplicity
 _atom_site_fract_x
 _atom_site_fract_y
 _atom_site_fract_z
 _atom_site_occupancy
  Gd  Gd0  1  0.777369  0.534659  0.396354  1
  Gd  Gd1  1  0.222631  0.965341  0.896354  1
  Gd  Gd2  1  0.277369  0.965341  0.396354  1
  Gd  Gd3  1  0.777369  0.034659  0.103646  1
  Gd  Gd4  1  0.222631  0.465341  0.603646  1
  Gd  Gd5  1  0.722631  0.534659  0.896354  1
  Gd  Gd6  1  0.722631  0.034659  0.603646  1
  Gd  Gd7  1  0.277369  0.465341  0.103646  1
  Cu  Cu8  1  0.308775  0.818093  0.195304  1
  Cu  Cu9  1  0.191225  0.318093  0.804696  1
  Cu  Cu10  1  0.308775  0.318093  0.304696  1
  Cu  Cu11  1  0.808775  0.181907  0.304696  1
  Cu  Cu12  1  0.691225  0.681907  0.695304  1
  Cu  Cu13  1  0.691225  0.181907  0.804696  1
  Cu  Cu14  1  0.191225  0.818093  0.695304  1
  Cu  Cu15  1  0.808775  0.681907  0.195304  1
  Mo  Mo16  1  0.830175  0.896711  0.847104  1
  Mo  Mo17  1  0.000216  0.780155  0.557230  1
  Mo  Mo18  1  0.499784  0.780155  0.057230  1
  Mo  Mo19  1  0.669825  0.896711  0.347104  1
  Mo  Mo20  1  0.999784  0.719845  0.057230  1
  Mo  Mo21  1  0.000216  0.280155  0.942770  1
  Mo  Mo22  1  0.169825  0.603289  0.347104  1
  Mo  Mo23  1  0.830175  0.396711  0.652896  1
  Mo  Mo24  1  0.330175  0.103289  0.652896  1
  Mo  Mo25  1  0.499784  0.280155  0.442770  1
  Mo  Mo26  1  0.669825  0.396711  0.152896  1
  Mo  Mo27  1  0.330175  0.603289  0.847104  1
  Mo  Mo28  1  0.500216  0.219845  0.942770  1
  Mo  Mo29  1  0.500216  0.719845  0.557230  1
  Mo  Mo30  1  0.169825  0.103289  0.152896  1
  Mo  Mo31  1  0.999784  0.219845  0.442770  1
  O  O32  1  0.756863  0.011276  0.272622  1
  O  O33  1  0.243137  0.488724  0.772622  1
  O  O34  1  0.243137  0.988724  0.727378  1
  O  O35  1  0.756863  0.511276  0.227378  1
  O  O36  1  0.608508  0.168968  0.498769  1
  O  O37  1  0.891492  0.668968  0.501231  1
  O  O38  1  0.094371  0.368353  0.024501  1
  O  O39  1  0.094371  0.868353  0.475499  1
  O  O40  1  0.905629  0.631647  0.975499  1
  O  O41  1  0.898334  0.386812  0.875695  1
  O  O42  1  0.601666  0.886812  0.124305  1
  O  O43  1  0.898334  0.886812  0.624305  1
  O  O44  1  0.108508  0.331032  0.498769  1
  O  O45  1  0.992275  0.587578  0.334005  1
  O  O46  1  0.007725  0.412422  0.665995  1
  O  O47  1  0.608508  0.668968  0.001231  1
  O  O48  1  0.007725  0.912422  0.834005  1
  O  O49  1  0.507725  0.587578  0.834005  1
  O  O50  1  0.611160  0.818382  0.631598  1
  O  O51  1  0.398334  0.613188  0.624305  1
  O  O52  1  0.492275  0.412422  0.165995  1
  O  O53  1  0.405629  0.868353  0.975499  1
  O  O54  1  0.225054  0.764871  0.318308  1
  O  O55  1  0.111160  0.681618  0.631598  1
  O  O56  1  0.388840  0.181618  0.368402  1
  O  O57  1  0.391492  0.331032  0.998769  1
  O  O58  1  0.274946  0.264871  0.681692  1
  O  O59  1  0.905629  0.131647  0.524501  1
  O  O60  1  0.611160  0.318382  0.868402  1
  O  O61  1  0.211635  0.575623  0.462141  1
  O  O62  1  0.888840  0.818382  0.131598  1
  O  O63  1  0.774946  0.235129  0.681692  1
  O  O64  1  0.743137  0.011276  0.772622  1
  O  O65  1  0.256863  0.988724  0.227378  1
  O  O66  1  0.992275  0.087578  0.165995  1
  O  O67  1  0.725054  0.735129  0.318308  1
  O  O68  1  0.225054  0.264871  0.181692  1
  O  O69  1  0.101666  0.113188  0.375695  1
  O  O70  1  0.211635  0.075623  0.037859  1
  O  O71  1  0.111160  0.181618  0.868402  1
  O  O72  1  0.391492  0.831032  0.501231  1
  O  O73  1  0.398334  0.113188  0.875695  1
  O  O74  1  0.711635  0.424377  0.037859  1
  O  O75  1  0.788365  0.924377  0.962141  1
  O  O76  1  0.594371  0.131647  0.024501  1
  O  O77  1  0.725054  0.235129  0.181692  1
  O  O78  1  0.594371  0.631647  0.475499  1
  O  O79  1  0.601666  0.386812  0.375695  1
  O  O80  1  0.101666  0.613188  0.124305  1
  O  O81  1  0.774946  0.735129  0.818308  1
  O  O82  1  0.788365  0.424377  0.537859  1
  O  O83  1  0.288365  0.075623  0.537859  1
  O  O84  1  0.388840  0.681618  0.131598  1
  O  O85  1  0.891492  0.168968  0.998769  1
  O  O86  1  0.888840  0.318382  0.368402  1
  O  O87  1  0.288365  0.575623  0.962141  1
  O  O88  1  0.492275  0.912422  0.334005  1
  O  O89  1  0.507725  0.087578  0.665995  1
  O  O90  1  0.743137  0.511276  0.727378  1
  O  O91  1  0.405629  0.368353  0.524501  1
  O  O92  1  0.274946  0.764871  0.818308  1
  O  O93  1  0.108508  0.831032  0.001231  1
  O  O94  1  0.256863  0.488724  0.272622  1
  O  O95  1  0.711635  0.924377  0.462141  1
