# generated using pymatgen
data_Gd2(MoO4)3
_symmetry_space_group_name_H-M   'P 1'
_cell_length_a   10.64307157
_cell_length_b   10.63622097
_cell_length_c   10.81999514
_cell_angle_alpha   90.00000000
_cell_angle_beta   90.00000000
_cell_angle_gamma   90.00000000
_symmetry_Int_Tables_number   1
_chemical_formula_structural   Gd2(MoO4)3
_chemical_formula_sum   'Gd8 Mo12 O48'
_cell_volume   1224.84575005
_cell_formula_units_Z   4
loop_
 _symmetry_equiv_pos_site_id
 _symmetry_equiv_pos_as_xyz
  1  'x, y, z'
loop_
 _atom_site_type_symbol
 _atom_site_label
 _atom_site_symmetry_multiplicity
 _atom_site_fract_x
 _atom_site_fract_y
 _atom_site_fract_z
 _atom_site_occupancy
  Gd  Gd0  1  0.811499  0.003230  0.238403  1
  Gd  Gd1  1  0.188501  0.996770  0.238403  1
  Gd  Gd2  1  0.688501  0.503230  0.238403  1
  Gd  Gd3  1  0.311499  0.496770  0.238403  1
  Gd  Gd4  1  0.997359  0.311171  0.763540  1
  Gd  Gd5  1  0.002641  0.688829  0.763540  1
  Gd  Gd6  1  0.502641  0.811171  0.763540  1
  Gd  Gd7  1  0.497359  0.188829  0.763540  1
  Mo  Mo8  1  0.754514  0.753830  0.501044  1
  Mo  Mo9  1  0.245486  0.246170  0.501044  1
  Mo  Mo10  1  0.745486  0.253830  0.501044  1
  Mo  Mo11  1  0.254514  0.746170  0.501044  1
  Mo  Mo12  1  0.792551  0.997571  0.857081  1
  Mo  Mo13  1  0.207449  0.002429  0.857081  1
  Mo  Mo14  1  0.707449  0.497571  0.857081  1
  Mo  Mo15  1  0.292551  0.502429  0.857081  1
  Mo  Mo16  1  0.993735  0.292568  0.144718  1
  Mo  Mo17  1  0.006265  0.707432  0.144718  1
  Mo  Mo18  1  0.506265  0.792568  0.144718  1
  Mo  Mo19  1  0.493735  0.207432  0.144718  1
  O  O20  1  0.872736  0.503890  0.809132  1
  O  O21  1  0.127264  0.496110  0.809132  1
  O  O22  1  0.627264  0.003890  0.809132  1
  O  O23  1  0.372736  0.996110  0.809132  1
  O  O24  1  0.502143  0.372818  0.192287  1
  O  O25  1  0.497857  0.627182  0.192287  1
  O  O26  1  0.997857  0.872818  0.192287  1
  O  O27  1  0.002143  0.127182  0.192287  1
  O  O28  1  0.803530  0.010669  0.021088  1
  O  O29  1  0.196470  0.989331  0.021088  1
  O  O30  1  0.696470  0.510669  0.021088  1
  O  O31  1  0.303530  0.489331  0.021088  1
  O  O32  1  0.491945  0.196467  0.980287  1
  O  O33  1  0.508055  0.803533  0.980287  1
  O  O34  1  0.008055  0.696467  0.980287  1
  O  O35  1  0.991945  0.303533  0.980287  1
  O  O36  1  0.861588  0.323040  0.599689  1
  O  O37  1  0.675988  0.373115  0.406295  1
  O  O38  1  0.824012  0.873115  0.406295  1
  O  O39  1  0.175988  0.126885  0.406295  1
  O  O40  1  0.375977  0.374674  0.788541  1
  O  O41  1  0.624023  0.625326  0.788541  1
  O  O42  1  0.124023  0.874674  0.788541  1
  O  O43  1  0.875977  0.125326  0.788541  1
  O  O44  1  0.126967  0.373960  0.204492  1
  O  O45  1  0.873033  0.626040  0.204492  1
  O  O46  1  0.373033  0.873960  0.204492  1
  O  O47  1  0.626967  0.126040  0.204492  1
  O  O48  1  0.146108  0.151028  0.810077  1
  O  O49  1  0.853892  0.848972  0.810077  1
  O  O50  1  0.353892  0.651028  0.810077  1
  O  O51  1  0.646108  0.348972  0.810077  1
  O  O52  1  0.349663  0.144082  0.201514  1
  O  O53  1  0.650337  0.855918  0.201514  1
  O  O54  1  0.150337  0.644082  0.201514  1
  O  O55  1  0.849663  0.355918  0.201514  1
  O  O56  1  0.316333  0.361727  0.402670  1
  O  O57  1  0.683667  0.638273  0.402670  1
  O  O58  1  0.183668  0.861727  0.402670  1
  O  O59  1  0.816333  0.138273  0.402670  1
  O  O60  1  0.126938  0.317148  0.595744  1
  O  O61  1  0.873062  0.682852  0.595744  1
  O  O62  1  0.373062  0.817148  0.595744  1
  O  O63  1  0.626938  0.182852  0.595744  1
  O  O64  1  0.361588  0.176960  0.599689  1
  O  O65  1  0.638412  0.823040  0.599689  1
  O  O66  1  0.138412  0.676960  0.599689  1
  O  O67  1  0.324012  0.626885  0.406295  1
