# generated using pymatgen
data_Gd2Mo5O18
_symmetry_space_group_name_H-M   'P 1'
_cell_length_a   9.50188796
_cell_length_b   9.59257330
_cell_length_c   19.53924365
_cell_angle_alpha   90.00000000
_cell_angle_beta   90.00000000
_cell_angle_gamma   90.00000000
_symmetry_Int_Tables_number   1
_chemical_formula_structural   Gd2Mo5O18
_chemical_formula_sum   'Gd8 Mo20 O72'
_cell_volume   1780.95431934
_cell_formula_units_Z   4
loop_
 _symmetry_equiv_pos_site_id
 _symmetry_equiv_pos_as_xyz
  1  'x, y, z'
loop_
 _atom_site_type_symbol
 _atom_site_label
 _atom_site_symmetry_multiplicity
 _atom_site_fract_x
 _atom_site_fract_y
 _atom_site_fract_z
 _atom_site_occupancy
  Gd  Gd0  1  0.026875  0.231865  0.614889  1
  Gd  Gd1  1  0.973125  0.768135  0.385111  1
  Gd  Gd2  1  0.526875  0.768135  0.614889  1
  Gd  Gd3  1  0.473125  0.731865  0.114889  1
  Gd  Gd4  1  0.526875  0.268135  0.885111  1
  Gd  Gd5  1  0.973125  0.268135  0.114889  1
  Gd  Gd6  1  0.026875  0.731865  0.885111  1
  Gd  Gd7  1  0.473125  0.231865  0.385111  1
  Mo  Mo8  1  0.823528  0.132294  0.301125  1
  Mo  Mo9  1  0.250000  0.964518  0.500000  1
  Mo  Mo10  1  0.676472  0.632294  0.801125  1
  Mo  Mo11  1  0.323528  0.867706  0.301125  1
  Mo  Mo12  1  0.176472  0.867706  0.698875  1
  Mo  Mo13  1  0.250000  0.464518  0.000000  1
  Mo  Mo14  1  0.323528  0.367706  0.198875  1
  Mo  Mo15  1  0.437968  0.358107  0.589766  1
  Mo  Mo16  1  0.750000  0.035482  0.500000  1
  Mo  Mo17  1  0.062032  0.858107  0.089766  1
  Mo  Mo18  1  0.062032  0.358107  0.410234  1
  Mo  Mo19  1  0.750000  0.535482  0.000000  1
  Mo  Mo20  1  0.937968  0.641893  0.589766  1
  Mo  Mo21  1  0.937968  0.141893  0.910234  1
  Mo  Mo22  1  0.562032  0.141893  0.089766  1
  Mo  Mo23  1  0.823528  0.632294  0.198875  1
  Mo  Mo24  1  0.676472  0.132294  0.698875  1
  Mo  Mo25  1  0.562032  0.641893  0.410234  1
  Mo  Mo26  1  0.176472  0.367706  0.801125  1
  Mo  Mo27  1  0.437968  0.858107  0.910234  1
  O  O28  1  0.357919  0.324396  0.795211  1
  O  O29  1  0.434200  0.746714  0.356790  1
  O  O30  1  0.112824  0.071214  0.532969  1
  O  O31  1  0.147798  0.544202  0.824143  1
  O  O32  1  0.513117  0.658467  0.496520  1
  O  O33  1  0.065800  0.246714  0.856790  1
  O  O34  1  0.684606  0.641772  0.069782  1
  O  O35  1  0.184606  0.358228  0.069782  1
  O  O36  1  0.764412  0.704280  0.598680  1
  O  O37  1  0.387176  0.571214  0.032969  1
  O  O38  1  0.857919  0.175604  0.704789  1
  O  O39  1  0.559153  0.965153  0.116211  1
  O  O40  1  0.612824  0.928786  0.532969  1
  O  O41  1  0.013117  0.341533  0.496520  1
  O  O42  1  0.893765  0.654106  0.281234  1
  O  O43  1  0.235588  0.795720  0.098680  1
  O  O44  1  0.147798  0.044202  0.675857  1
  O  O45  1  0.059153  0.534847  0.383789  1
  O  O46  1  0.486883  0.841533  0.996520  1
  O  O47  1  0.059153  0.034847  0.116211  1
  O  O48  1  0.264412  0.795720  0.901320  1
  O  O49  1  0.735588  0.204280  0.098680  1
  O  O50  1  0.764412  0.204280  0.901320  1
  O  O51  1  0.606235  0.654106  0.718766  1
  O  O52  1  0.815394  0.641772  0.930218  1
  O  O53  1  0.142081  0.824396  0.295211  1
  O  O54  1  0.647798  0.955798  0.675857  1
  O  O55  1  0.434200  0.246714  0.143210  1
  O  O56  1  0.357919  0.824396  0.704789  1
  O  O57  1  0.559153  0.465153  0.383789  1
  O  O58  1  0.013117  0.841533  0.003480  1
  O  O59  1  0.606235  0.154106  0.781234  1
  O  O60  1  0.612824  0.428786  0.967031  1
  O  O61  1  0.986883  0.158467  0.996520  1
  O  O62  1  0.440847  0.534847  0.616211  1
  O  O63  1  0.513117  0.158467  0.003480  1
  O  O64  1  0.486883  0.341533  0.503480  1
  O  O65  1  0.940847  0.965153  0.883789  1
  O  O66  1  0.315394  0.358228  0.930218  1
  O  O67  1  0.393765  0.845894  0.218766  1
  O  O68  1  0.986883  0.658467  0.503480  1
  O  O69  1  0.647798  0.455798  0.824143  1
  O  O70  1  0.642081  0.175604  0.295211  1
  O  O71  1  0.264412  0.295720  0.598680  1
  O  O72  1  0.684606  0.141772  0.430218  1
  O  O73  1  0.142081  0.324396  0.204789  1
  O  O74  1  0.235588  0.295720  0.401320  1
  O  O75  1  0.106235  0.345894  0.718766  1
  O  O76  1  0.852202  0.455798  0.175857  1
  O  O77  1  0.315394  0.858228  0.569782  1
  O  O78  1  0.852202  0.955798  0.324143  1
  O  O79  1  0.352202  0.544202  0.175857  1
  O  O80  1  0.352202  0.044202  0.324143  1
  O  O81  1  0.642081  0.675604  0.204789  1
  O  O82  1  0.940847  0.465153  0.616211  1
  O  O83  1  0.387176  0.071214  0.467031  1
  O  O84  1  0.934200  0.253286  0.356790  1
  O  O85  1  0.565800  0.753286  0.856790  1
  O  O86  1  0.184606  0.858228  0.430218  1
  O  O87  1  0.440847  0.034847  0.883789  1
  O  O88  1  0.815394  0.141772  0.569782  1
  O  O89  1  0.887176  0.428786  0.032969  1
  O  O90  1  0.735588  0.704280  0.401320  1
  O  O91  1  0.565800  0.253286  0.643210  1
  O  O92  1  0.065800  0.746714  0.643210  1
  O  O93  1  0.393765  0.345894  0.281234  1
  O  O94  1  0.857919  0.675604  0.795211  1
  O  O95  1  0.112824  0.571214  0.967031  1
  O  O96  1  0.887176  0.928786  0.467031  1
  O  O97  1  0.934200  0.753286  0.143210  1
  O  O98  1  0.893765  0.154106  0.218766  1
  O  O99  1  0.106235  0.845894  0.781234  1
