# generated using pymatgen
data_Gd2MoO6
_symmetry_space_group_name_H-M   'P 1'
_cell_length_a   5.47713958
_cell_length_b   10.07504320
_cell_length_c   10.07504316
_cell_angle_alpha   68.23311253
_cell_angle_beta   75.07873222
_cell_angle_gamma   75.07873379
_symmetry_Int_Tables_number   1
_chemical_formula_structural   Gd2MoO6
_chemical_formula_sum   'Gd8 Mo4 O24'
_cell_volume   490.71739428
_cell_formula_units_Z   4
loop_
 _symmetry_equiv_pos_site_id
 _symmetry_equiv_pos_as_xyz
  1  'x, y, z'
loop_
 _atom_site_type_symbol
 _atom_site_label
 _atom_site_symmetry_multiplicity
 _atom_site_fract_x
 _atom_site_fract_y
 _atom_site_fract_z
 _atom_site_occupancy
  Gd  Gd0  1  0.380413  0.214942  0.446947  1
  Gd  Gd1  1  0.619587  0.785058  0.553053  1
  Gd  Gd2  1  0.750000  0.391473  0.608527  1
  Gd  Gd3  1  0.250000  0.608527  0.391473  1
  Gd  Gd4  1  0.880413  0.446947  0.214942  1
  Gd  Gd5  1  0.750000  0.864644  0.135356  1
  Gd  Gd6  1  0.119587  0.553053  0.785058  1
  Gd  Gd7  1  0.250000  0.135356  0.864644  1
  Mo  Mo8  1  0.440274  0.703592  0.988829  1
  Mo  Mo9  1  0.559726  0.296408  0.011171  1
  Mo  Mo10  1  0.059726  0.011171  0.296408  1
  Mo  Mo11  1  0.940274  0.988829  0.703592  1
  O  O12  1  0.421525  0.608812  0.574730  1
  O  O13  1  0.259369  0.430958  0.024832  1
  O  O14  1  0.137346  0.180511  0.288035  1
  O  O15  1  0.865324  0.326908  0.884186  1
  O  O16  1  0.365324  0.884186  0.326908  1
  O  O17  1  0.134676  0.673092  0.115814  1
  O  O18  1  0.362654  0.711965  0.819489  1
  O  O19  1  0.759369  0.024832  0.430958  1
  O  O20  1  0.078475  0.425270  0.391188  1
  O  O21  1  0.740631  0.569042  0.975168  1
  O  O22  1  0.484319  0.887240  0.952694  1
  O  O23  1  0.914685  0.809161  0.336977  1
  O  O24  1  0.085315  0.190839  0.663023  1
  O  O25  1  0.585315  0.663023  0.190839  1
  O  O26  1  0.634676  0.115814  0.673092  1
  O  O27  1  0.015681  0.047306  0.112760  1
  O  O28  1  0.515681  0.112760  0.047306  1
  O  O29  1  0.414685  0.336977  0.809161  1
  O  O30  1  0.637346  0.288035  0.180511  1
  O  O31  1  0.984319  0.952694  0.887240  1
  O  O32  1  0.862654  0.819489  0.711965  1
  O  O33  1  0.578475  0.391188  0.425270  1
  O  O34  1  0.921525  0.574730  0.608812  1
  O  O35  1  0.240631  0.975168  0.569042  1
