# generated using pymatgen
data_Gd2ReC2
_symmetry_space_group_name_H-M   'P 1'
_cell_length_a   6.60652814
_cell_length_b   5.19350019
_cell_length_c   9.95022528
_cell_angle_alpha   90.00000000
_cell_angle_beta   90.00000000
_cell_angle_gamma   90.00000000
_symmetry_Int_Tables_number   1
_chemical_formula_structural   Gd2ReC2
_chemical_formula_sum   'Gd8 Re4 C8'
_cell_volume   341.40223083
_cell_formula_units_Z   4
loop_
 _symmetry_equiv_pos_site_id
 _symmetry_equiv_pos_as_xyz
  1  'x, y, z'
loop_
 _atom_site_type_symbol
 _atom_site_label
 _atom_site_symmetry_multiplicity
 _atom_site_fract_x
 _atom_site_fract_y
 _atom_site_fract_z
 _atom_site_occupancy
  Gd  Gd0  1  0.470514  0.250001  0.784228  1
  Gd  Gd1  1  0.029486  0.750001  0.284228  1
  Gd  Gd2  1  0.970515  0.250001  0.715771  1
  Gd  Gd3  1  0.529487  0.750001  0.215772  1
  Gd  Gd4  1  0.816428  0.250001  0.053597  1
  Gd  Gd5  1  0.683572  0.750001  0.553596  1
  Gd  Gd6  1  0.316427  0.250001  0.446403  1
  Gd  Gd7  1  0.183572  0.750001  0.946403  1
  Re  Re8  1  0.276062  0.250001  0.136336  1
  Re  Re9  1  0.223939  0.750001  0.636337  1
  Re  Re10  1  0.776062  0.250001  0.363663  1
  Re  Re11  1  0.723938  0.750001  0.863662  1
  C  C12  1  0.041507  0.250001  0.258703  1
  C  C13  1  0.458492  0.750001  0.758703  1
  C  C14  1  0.541508  0.250001  0.241297  1
  C  C15  1  0.958493  0.750001  0.741298  1
  C  C16  1  0.679513  0.250001  0.547024  1
  C  C17  1  0.820487  0.750001  0.047024  1
  C  C18  1  0.179513  0.250001  0.952976  1
  C  C19  1  0.320488  0.750001  0.452976  1
