# generated using pymatgen
data_Gd2TiO5
_symmetry_space_group_name_H-M   'P 1'
_cell_length_a   9.57997677
_cell_length_b   7.14881570
_cell_length_c   6.91970044
_cell_angle_alpha   90.00000000
_cell_angle_beta   103.52557569
_cell_angle_gamma   90.00000000
_symmetry_Int_Tables_number   1
_chemical_formula_structural   Gd2TiO5
_chemical_formula_sum   'Gd8 Ti4 O20'
_cell_volume   460.75576611
_cell_formula_units_Z   4
loop_
 _symmetry_equiv_pos_site_id
 _symmetry_equiv_pos_as_xyz
  1  'x, y, z'
loop_
 _atom_site_type_symbol
 _atom_site_label
 _atom_site_symmetry_multiplicity
 _atom_site_fract_x
 _atom_site_fract_y
 _atom_site_fract_z
 _atom_site_occupancy
  Gd  Gd0  1  0.029217  0.126653  0.730284  1
  Gd  Gd1  1  0.029217  0.373347  0.230284  1
  Gd  Gd2  1  0.360618  0.139932  0.530287  1
  Gd  Gd3  1  0.360618  0.360068  0.030287  1
  Gd  Gd4  1  0.639382  0.639932  0.969713  1
  Gd  Gd5  1  0.639382  0.860068  0.469713  1
  Gd  Gd6  1  0.970783  0.626653  0.769716  1
  Gd  Gd7  1  0.970783  0.873347  0.269716  1
  Ti  Ti8  1  0.299143  0.594911  0.519996  1
  Ti  Ti9  1  0.299143  0.905089  0.019996  1
  Ti  Ti10  1  0.700857  0.094911  0.980004  1
  Ti  Ti11  1  0.700857  0.405089  0.480004  1
  O  O12  1  0.104059  0.861146  0.987000  1
  O  O13  1  0.109365  0.385714  0.928461  1
  O  O14  1  0.104059  0.638854  0.487000  1
  O  O15  1  0.109365  0.114286  0.428461  1
  O  O16  1  0.280829  0.081193  0.818325  1
  O  O17  1  0.396134  0.694671  0.988876  1
  O  O18  1  0.280829  0.418807  0.318325  1
  O  O19  1  0.384141  0.428680  0.710378  1
  O  O20  1  0.396134  0.805329  0.488876  1
  O  O21  1  0.384141  0.071320  0.210378  1
  O  O22  1  0.615859  0.928680  0.789622  1
  O  O23  1  0.603866  0.194671  0.511124  1
  O  O24  1  0.615859  0.571320  0.289622  1
  O  O25  1  0.719171  0.581193  0.681675  1
  O  O26  1  0.603866  0.305329  0.011124  1
  O  O27  1  0.719171  0.918807  0.181675  1
  O  O28  1  0.890635  0.885714  0.571539  1
  O  O29  1  0.895941  0.361146  0.513000  1
  O  O30  1  0.890635  0.614286  0.071539  1
  O  O31  1  0.895941  0.138854  0.013000  1
