# generated using pymatgen
data_Gd2TiO5
_symmetry_space_group_name_H-M   'P 1'
_cell_length_a   7.55168092
_cell_length_b   3.67862707
_cell_length_c   15.73896742
_cell_angle_alpha   90.00126505
_cell_angle_beta   90.00019837
_cell_angle_gamma   89.99999168
_symmetry_Int_Tables_number   1
_chemical_formula_structural   Gd2TiO5
_chemical_formula_sum   'Gd8 Ti4 O20'
_cell_volume   437.22564812
_cell_formula_units_Z   4
loop_
 _symmetry_equiv_pos_site_id
 _symmetry_equiv_pos_as_xyz
  1  'x, y, z'
loop_
 _atom_site_type_symbol
 _atom_site_label
 _atom_site_symmetry_multiplicity
 _atom_site_fract_x
 _atom_site_fract_y
 _atom_site_fract_z
 _atom_site_occupancy
  Gd  Gd0  1  0.110761  0.249997  0.081684  1
  Gd  Gd1  1  0.154381  0.250009  0.738901  1
  Gd  Gd2  1  0.345621  0.749982  0.238915  1
  Gd  Gd3  1  0.389195  0.750007  0.581695  1
  Gd  Gd4  1  0.610784  0.249998  0.418310  1
  Gd  Gd5  1  0.654373  0.250008  0.761077  1
  Gd  Gd6  1  0.845636  0.750010  0.261084  1
  Gd  Gd7  1  0.889218  0.750003  0.918325  1
  Ti  Ti8  1  0.115687  0.249995  0.423239  1
  Ti  Ti9  1  0.384286  0.750000  0.923237  1
  Ti  Ti10  1  0.615742  0.249999  0.076792  1
  Ti  Ti11  1  0.884344  0.749996  0.576732  1
  O  O12  1  0.076986  0.749991  0.173068  1
  O  O13  1  0.077241  0.750003  0.452985  1
  O  O14  1  0.114464  0.750005  0.648356  1
  O  O15  1  0.160048  0.750001  0.993180  1
  O  O16  1  0.246594  0.249993  0.324606  1
  O  O17  1  0.253417  0.750003  0.824611  1
  O  O18  1  0.339978  0.250010  0.493180  1
  O  O19  1  0.385553  0.249991  0.148351  1
  O  O20  1  0.422772  0.249998  0.952992  1
  O  O21  1  0.423018  0.250006  0.673069  1
  O  O22  1  0.576986  0.749997  0.326941  1
  O  O23  1  0.577232  0.750000  0.047013  1
  O  O24  1  0.614449  0.750001  0.851642  1
  O  O25  1  0.660020  0.749993  0.506808  1
  O  O26  1  0.746563  0.250008  0.175380  1
  O  O27  1  0.753395  0.749999  0.675410  1
  O  O28  1  0.839948  0.249996  0.006824  1
  O  O29  1  0.885538  0.250002  0.351651  1
  O  O30  1  0.922758  0.249989  0.547012  1
  O  O31  1  0.923012  0.250007  0.826930  1
