# generated using pymatgen
data_Gd2(WO4)3
_symmetry_space_group_name_H-M   'P 1'
_cell_length_a   10.58607559
_cell_length_b   10.60985397
_cell_length_c   10.87085908
_cell_angle_alpha   90.00000000
_cell_angle_beta   90.00000000
_cell_angle_gamma   90.00000000
_symmetry_Int_Tables_number   1
_chemical_formula_structural   Gd2(WO4)3
_chemical_formula_sum   'Gd8 W12 O48'
_cell_volume   1220.97919333
_cell_formula_units_Z   4
loop_
 _symmetry_equiv_pos_site_id
 _symmetry_equiv_pos_as_xyz
  1  'x, y, z'
loop_
 _atom_site_type_symbol
 _atom_site_label
 _atom_site_symmetry_multiplicity
 _atom_site_fract_x
 _atom_site_fract_y
 _atom_site_fract_z
 _atom_site_occupancy
  Gd  Gd0  1  0.006298  0.811273  0.263000  1
  Gd  Gd1  1  0.189128  0.495950  0.738152  1
  Gd  Gd2  1  0.310872  0.995950  0.738152  1
  Gd  Gd3  1  0.493702  0.311273  0.263000  1
  Gd  Gd4  1  0.506298  0.688727  0.263000  1
  Gd  Gd5  1  0.689128  0.004050  0.738152  1
  Gd  Gd6  1  0.810872  0.504050  0.738152  1
  Gd  Gd7  1  0.993702  0.188727  0.263000  1
  W  W8  1  0.003303  0.206382  0.643401  1
  W  W9  1  0.205579  0.488419  0.357307  1
  W  W10  1  0.242839  0.243586  0.000361  1
  W  W11  1  0.257161  0.743586  0.000361  1
  W  W12  1  0.294421  0.988419  0.357307  1
  W  W13  1  0.496697  0.706382  0.643401  1
  W  W14  1  0.503303  0.293618  0.643401  1
  W  W15  1  0.705579  0.011581  0.357307  1
  W  W16  1  0.742839  0.256414  0.000361  1
  W  W17  1  0.757161  0.756414  0.000361  1
  W  W18  1  0.794421  0.511581  0.357307  1
  W  W19  1  0.996697  0.793618  0.643401  1
  O  O20  1  0.006792  0.627126  0.690946  1
  O  O21  1  0.020608  0.805666  0.479461  1
  O  O22  1  0.113475  0.615517  0.292435  1
  O  O23  1  0.117722  0.884604  0.720089  1
  O  O24  1  0.123003  0.170329  0.095014  1
  O  O25  1  0.127731  0.006158  0.311175  1
  O  O26  1  0.143136  0.819904  0.099843  1
  O  O27  1  0.155302  0.334713  0.305286  1
  O  O28  1  0.160414  0.153666  0.682481  1
  O  O29  1  0.169348  0.358653  0.900443  1
  O  O30  1  0.181662  0.624836  0.905821  1
  O  O31  1  0.192676  0.488938  0.522542  1
  O  O32  1  0.307324  0.988938  0.522542  1
  O  O33  1  0.318338  0.124836  0.905821  1
  O  O34  1  0.330652  0.858653  0.900443  1
  O  O35  1  0.339586  0.653666  0.682481  1
  O  O36  1  0.344698  0.834713  0.305286  1
  O  O37  1  0.356864  0.319904  0.099843  1
  O  O38  1  0.372269  0.506158  0.311175  1
  O  O39  1  0.376997  0.670329  0.095014  1
  O  O40  1  0.382278  0.384604  0.720089  1
  O  O41  1  0.386525  0.115517  0.292435  1
  O  O42  1  0.479392  0.305666  0.479461  1
  O  O43  1  0.493208  0.127126  0.690946  1
  O  O44  1  0.506792  0.872874  0.690946  1
  O  O45  1  0.520608  0.694334  0.479461  1
  O  O46  1  0.613475  0.884483  0.292435  1
  O  O47  1  0.617722  0.615396  0.720089  1
  O  O48  1  0.623003  0.329671  0.095014  1
  O  O49  1  0.627731  0.493842  0.311175  1
  O  O50  1  0.643136  0.680096  0.099843  1
  O  O51  1  0.655302  0.165287  0.305286  1
  O  O52  1  0.660414  0.346334  0.682481  1
  O  O53  1  0.669348  0.141347  0.900443  1
  O  O54  1  0.681662  0.875164  0.905821  1
  O  O55  1  0.692676  0.011062  0.522542  1
  O  O56  1  0.807324  0.511062  0.522542  1
  O  O57  1  0.818338  0.375164  0.905821  1
  O  O58  1  0.830652  0.641347  0.900443  1
  O  O59  1  0.839586  0.846334  0.682481  1
  O  O60  1  0.844698  0.665287  0.305286  1
  O  O61  1  0.856864  0.180096  0.099843  1
  O  O62  1  0.872269  0.993842  0.311175  1
  O  O63  1  0.876997  0.829671  0.095014  1
  O  O64  1  0.882278  0.115396  0.720089  1
  O  O65  1  0.886525  0.384483  0.292435  1
  O  O66  1  0.979392  0.194334  0.479461  1
  O  O67  1  0.993208  0.372874  0.690946  1
