# generated using pymatgen
data_Gd2(WO4)3
_symmetry_space_group_name_H-M   'P 1'
_cell_length_a   10.25675224
_cell_length_b   10.37139439
_cell_length_c   14.26737006
_cell_angle_alpha   90.00000000
_cell_angle_beta   90.39250510
_cell_angle_gamma   90.00000000
_symmetry_Int_Tables_number   1
_chemical_formula_structural   Gd2(WO4)3
_chemical_formula_sum   'Gd8 W12 O48'
_cell_volume   1517.68188108
_cell_formula_units_Z   4
loop_
 _symmetry_equiv_pos_site_id
 _symmetry_equiv_pos_as_xyz
  1  'x, y, z'
loop_
 _atom_site_type_symbol
 _atom_site_label
 _atom_site_symmetry_multiplicity
 _atom_site_fract_x
 _atom_site_fract_y
 _atom_site_fract_z
 _atom_site_occupancy
  Gd  Gd0  1  0.247972  0.970616  0.881413  1
  Gd  Gd1  1  0.244148  0.033727  0.381923  1
  Gd  Gd2  1  0.255852  0.533727  0.118077  1
  Gd  Gd3  1  0.252028  0.470616  0.618587  1
  Gd  Gd4  1  0.747972  0.529384  0.381413  1
  Gd  Gd5  1  0.744148  0.466273  0.881923  1
  Gd  Gd6  1  0.755852  0.966273  0.618077  1
  Gd  Gd7  1  0.752028  0.029384  0.118587  1
  W  W8  1  0.025974  0.748755  0.500067  1
  W  W9  1  0.103301  0.619589  0.856697  1
  W  W10  1  0.107340  0.879903  0.142688  1
  W  W11  1  0.392660  0.379903  0.357312  1
  W  W12  1  0.396699  0.119589  0.643303  1
  W  W13  1  0.474026  0.248755  0.999933  1
  W  W14  1  0.525974  0.751245  0.000067  1
  W  W15  1  0.603301  0.880411  0.356697  1
  W  W16  1  0.607340  0.620097  0.642688  1
  W  W17  1  0.892660  0.120097  0.857312  1
  W  W18  1  0.896699  0.380411  0.143303  1
  W  W19  1  0.974026  0.251245  0.499933  1
  O  O20  1  0.067557  0.098930  0.867789  1
  O  O21  1  0.076090  0.342875  0.580022  1
  O  O22  1  0.075462  0.176381  0.411972  1
  O  O23  1  0.070689  0.410133  0.137206  1
  O  O24  1  0.111860  0.872567  0.435582  1
  O  O25  1  0.132923  0.789313  0.833792  1
  O  O26  1  0.142650  0.711989  0.167621  1
  O  O27  1  0.142310  0.642713  0.556770  1
  O  O28  1  0.169353  0.980943  0.236524  1
  O  O29  1  0.174842  0.522566  0.764424  1
  O  O30  1  0.179379  0.578118  0.967487  1
  O  O31  1  0.183439  0.925973  0.033844  1
  O  O32  1  0.316561  0.425973  0.466156  1
  O  O33  1  0.320621  0.078118  0.532513  1
  O  O34  1  0.325158  0.022566  0.735576  1
  O  O35  1  0.330647  0.480943  0.263476  1
  O  O36  1  0.357690  0.142713  0.943230  1
  O  O37  1  0.357350  0.211989  0.332379  1
  O  O38  1  0.367077  0.289313  0.666208  1
  O  O39  1  0.388140  0.372567  0.064418  1
  O  O40  1  0.423910  0.842874  0.919978  1
  O  O41  1  0.429311  0.910133  0.362794  1
  O  O42  1  0.424538  0.676381  0.088028  1
  O  O43  1  0.432443  0.598930  0.632211  1
  O  O44  1  0.567557  0.401070  0.367789  1
  O  O45  1  0.575462  0.323619  0.911972  1
  O  O46  1  0.570689  0.089867  0.637206  1
  O  O47  1  0.576090  0.157126  0.080022  1
  O  O48  1  0.611860  0.627433  0.935582  1
  O  O49  1  0.632923  0.710687  0.333792  1
  O  O50  1  0.642650  0.788011  0.667621  1
  O  O51  1  0.642310  0.857287  0.056770  1
  O  O52  1  0.669353  0.519057  0.736524  1
  O  O53  1  0.674842  0.977434  0.264424  1
  O  O54  1  0.679379  0.921882  0.467487  1
  O  O55  1  0.683439  0.574027  0.533844  1
  O  O56  1  0.816561  0.074027  0.966156  1
  O  O57  1  0.820621  0.421882  0.032513  1
  O  O58  1  0.825158  0.477434  0.235576  1
  O  O59  1  0.830647  0.019057  0.763476  1
  O  O60  1  0.857690  0.357287  0.443230  1
  O  O61  1  0.857350  0.288011  0.832379  1
  O  O62  1  0.867077  0.210687  0.166208  1
  O  O63  1  0.888140  0.127433  0.564418  1
  O  O64  1  0.929311  0.589867  0.862794  1
  O  O65  1  0.924538  0.823619  0.588028  1
  O  O66  1  0.923910  0.657126  0.419978  1
  O  O67  1  0.932443  0.901070  0.132211  1
