# generated using pymatgen
data_Gd2W4O15
_symmetry_space_group_name_H-M   'P 1'
_cell_length_a   9.05832636
_cell_length_b   12.68349607
_cell_length_c   10.55236671
_cell_angle_alpha   90.00000000
_cell_angle_beta   90.32169936
_cell_angle_gamma   90.00000000
_symmetry_Int_Tables_number   1
_chemical_formula_structural   Gd2W4O15
_chemical_formula_sum   'Gd8 W16 O60'
_cell_volume   1212.35545756
_cell_formula_units_Z   4
loop_
 _symmetry_equiv_pos_site_id
 _symmetry_equiv_pos_as_xyz
  1  'x, y, z'
loop_
 _atom_site_type_symbol
 _atom_site_label
 _atom_site_symmetry_multiplicity
 _atom_site_fract_x
 _atom_site_fract_y
 _atom_site_fract_z
 _atom_site_occupancy
  Gd  Gd0  1  0.079425  0.352932  0.773336  1
  Gd  Gd1  1  0.153118  0.124960  0.255644  1
  Gd  Gd2  1  0.346882  0.624960  0.244356  1
  Gd  Gd3  1  0.420575  0.852932  0.726664  1
  Gd  Gd4  1  0.579425  0.147068  0.273336  1
  Gd  Gd5  1  0.653118  0.375040  0.755644  1
  Gd  Gd6  1  0.846882  0.875040  0.744356  1
  Gd  Gd7  1  0.920575  0.647068  0.226664  1
  W  W8  1  0.076512  0.409693  0.397497  1
  W  W9  1  0.126405  0.845380  0.441697  1
  W  W10  1  0.136519  0.665882  0.908134  1
  W  W11  1  0.193993  0.058526  0.877531  1
  W  W12  1  0.306007  0.558526  0.622469  1
  W  W13  1  0.363481  0.165882  0.591866  1
  W  W14  1  0.373595  0.345380  0.058303  1
  W  W15  1  0.423488  0.909693  0.102503  1
  W  W16  1  0.576512  0.090307  0.897497  1
  W  W17  1  0.626405  0.654620  0.941697  1
  W  W18  1  0.636519  0.834118  0.408134  1
  W  W19  1  0.693993  0.441474  0.377531  1
  W  W20  1  0.806007  0.941474  0.122469  1
  W  W21  1  0.863481  0.334118  0.091866  1
  W  W22  1  0.873595  0.154620  0.558303  1
  W  W23  1  0.923488  0.590307  0.602503  1
  O  O24  1  0.027828  0.271225  0.150093  1
  O  O25  1  0.030233  0.142571  0.454275  1
  O  O26  1  0.087785  0.169310  0.823805  1
  O  O27  1  0.111361  0.650371  0.606700  1
  O  O28  1  0.112681  0.514055  0.284837  1
  O  O29  1  0.107996  0.943391  0.808590  1
  O  O30  1  0.116440  0.451136  0.566379  1
  O  O31  1  0.123161  0.723721  0.342803  1
  O  O32  1  0.128191  0.957837  0.338379  1
  O  O33  1  0.121447  0.635196  0.077846  1
  O  O34  1  0.151160  0.057051  0.044804  1
  O  O35  1  0.174129  0.544697  0.813546  1
  O  O36  1  0.197240  0.306390  0.358582  1
  O  O37  1  0.211126  0.351736  0.958561  1
  O  O38  1  0.217745  0.255716  0.625362  1
  O  O39  1  0.282255  0.755716  0.874638  1
  O  O40  1  0.288874  0.851736  0.541439  1
  O  O41  1  0.302760  0.806390  0.141418  1
  O  O42  1  0.325871  0.044697  0.686454  1
  O  O43  1  0.348840  0.557051  0.455196  1
  O  O44  1  0.378553  0.135196  0.422154  1
  O  O45  1  0.371809  0.457837  0.161621  1
  O  O46  1  0.376839  0.223721  0.157197  1
  O  O47  1  0.383560  0.951136  0.933621  1
  O  O48  1  0.392004  0.443391  0.691410  1
  O  O49  1  0.388639  0.150371  0.893300  1
  O  O50  1  0.387319  0.014055  0.215163  1
  O  O51  1  0.412215  0.669310  0.676195  1
  O  O52  1  0.469767  0.642571  0.045725  1
  O  O53  1  0.472172  0.771225  0.349907  1
  O  O54  1  0.527828  0.228775  0.650093  1
  O  O55  1  0.530233  0.357429  0.954275  1
  O  O56  1  0.587785  0.330690  0.323805  1
  O  O57  1  0.612681  0.985945  0.784837  1
  O  O58  1  0.611361  0.849629  0.106700  1
  O  O59  1  0.607996  0.556609  0.308590  1
  O  O60  1  0.616440  0.048864  0.066379  1
  O  O61  1  0.623161  0.776279  0.842803  1
  O  O62  1  0.628191  0.542163  0.838379  1
  O  O63  1  0.621447  0.864804  0.577846  1
  O  O64  1  0.651160  0.442949  0.544804  1
  O  O65  1  0.674129  0.955303  0.313546  1
  O  O66  1  0.697240  0.193610  0.858582  1
  O  O67  1  0.711126  0.148264  0.458561  1
  O  O68  1  0.717745  0.244284  0.125362  1
  O  O69  1  0.782255  0.744284  0.374638  1
  O  O70  1  0.788874  0.648264  0.041439  1
  O  O71  1  0.802760  0.693610  0.641418  1
  O  O72  1  0.825871  0.455303  0.186454  1
  O  O73  1  0.848840  0.942949  0.955196  1
  O  O74  1  0.878553  0.364804  0.922154  1
  O  O75  1  0.871809  0.042163  0.661621  1
  O  O76  1  0.876839  0.276279  0.657197  1
  O  O77  1  0.883560  0.548864  0.433621  1
  O  O78  1  0.892004  0.056609  0.191410  1
  O  O79  1  0.887319  0.485945  0.715163  1
  O  O80  1  0.888639  0.349629  0.393300  1
  O  O81  1  0.912215  0.830690  0.176195  1
  O  O82  1  0.969767  0.857429  0.545725  1
  O  O83  1  0.972172  0.728775  0.849907  1
