# generated using pymatgen
data_Gd2WO6
_symmetry_space_group_name_H-M   'P 1'
_cell_length_a   5.48369701
_cell_length_b   9.97538987
_cell_length_c   9.97538947
_cell_angle_alpha   68.90055891
_cell_angle_beta   76.11028741
_cell_angle_gamma   76.11028518
_symmetry_Int_Tables_number   1
_chemical_formula_structural   Gd2WO6
_chemical_formula_sum   'Gd8 W4 O24'
_cell_volume   487.04152224
_cell_formula_units_Z   4
loop_
 _symmetry_equiv_pos_site_id
 _symmetry_equiv_pos_as_xyz
  1  'x, y, z'
loop_
 _atom_site_type_symbol
 _atom_site_label
 _atom_site_symmetry_multiplicity
 _atom_site_fract_x
 _atom_site_fract_y
 _atom_site_fract_z
 _atom_site_occupancy
  Gd  Gd0  1  0.250000  0.606965  0.393035  1
  Gd  Gd1  1  0.750000  0.393035  0.606965  1
  Gd  Gd2  1  0.250000  0.131114  0.868886  1
  Gd  Gd3  1  0.750000  0.868886  0.131114  1
  Gd  Gd4  1  0.885067  0.441055  0.213178  1
  Gd  Gd5  1  0.614933  0.786822  0.558945  1
  Gd  Gd6  1  0.114933  0.558945  0.786822  1
  Gd  Gd7  1  0.385067  0.213178  0.441055  1
  W  W8  1  0.567109  0.304375  0.003338  1
  W  W9  1  0.932891  0.996663  0.695625  1
  W  W10  1  0.432891  0.695625  0.996663  1
  W  W11  1  0.067109  0.003338  0.304375  1
  O  O12  1  0.641902  0.284003  0.183164  1
  O  O13  1  0.858098  0.816836  0.715997  1
  O  O14  1  0.358098  0.715997  0.816836  1
  O  O15  1  0.141902  0.183164  0.284003  1
  O  O16  1  0.518665  0.116258  0.043505  1
  O  O17  1  0.981335  0.956495  0.883742  1
  O  O18  1  0.481335  0.883742  0.956495  1
  O  O19  1  0.018665  0.043505  0.116258  1
  O  O20  1  0.268505  0.443461  0.027055  1
  O  O21  1  0.231495  0.972945  0.556539  1
  O  O22  1  0.731495  0.556539  0.972945  1
  O  O23  1  0.768505  0.027055  0.443461  1
  O  O24  1  0.885263  0.320643  0.882193  1
  O  O25  1  0.614737  0.117807  0.679356  1
  O  O26  1  0.114737  0.679356  0.117807  1
  O  O27  1  0.385263  0.882193  0.320643  1
  O  O28  1  0.421855  0.341899  0.815336  1
  O  O29  1  0.078145  0.184664  0.658101  1
  O  O30  1  0.578145  0.658101  0.184664  1
  O  O31  1  0.921855  0.815336  0.341899  1
  O  O32  1  0.422443  0.606668  0.576405  1
  O  O33  1  0.077557  0.423595  0.393332  1
  O  O34  1  0.577557  0.393332  0.423595  1
  O  O35  1  0.922443  0.576405  0.606668  1
