# generated using pymatgen
data_Gd2W2O9
_symmetry_space_group_name_H-M   'P 1'
_cell_length_a   5.50792861
_cell_length_b   5.40389039
_cell_length_c   23.83693355
_cell_angle_alpha   90.00000000
_cell_angle_beta   90.00000000
_cell_angle_gamma   90.00000000
_symmetry_Int_Tables_number   1
_chemical_formula_structural   Gd2W2O9
_chemical_formula_sum   'Gd8 W8 O36'
_cell_volume   709.48827027
_cell_formula_units_Z   4
loop_
 _symmetry_equiv_pos_site_id
 _symmetry_equiv_pos_as_xyz
  1  'x, y, z'
loop_
 _atom_site_type_symbol
 _atom_site_label
 _atom_site_symmetry_multiplicity
 _atom_site_fract_x
 _atom_site_fract_y
 _atom_site_fract_z
 _atom_site_occupancy
  Gd  Gd0  1  0.121677  0.477596  0.294462  1
  Gd  Gd1  1  0.122834  0.977247  0.392324  1
  Gd  Gd2  1  0.377166  0.477247  0.892324  1
  Gd  Gd3  1  0.378323  0.977596  0.794462  1
  Gd  Gd4  1  0.621677  0.022404  0.294462  1
  Gd  Gd5  1  0.622834  0.522753  0.392324  1
  Gd  Gd6  1  0.877166  0.022753  0.892324  1
  Gd  Gd7  1  0.878323  0.522404  0.794462  1
  W  W8  1  0.175425  0.999111  0.171320  1
  W  W9  1  0.186163  0.499459  0.516066  1
  W  W10  1  0.313837  -0.000541  0.016066  1
  W  W11  1  0.324575  0.499111  0.671320  1
  W  W12  1  0.675425  0.500889  0.171320  1
  W  W13  1  0.686163  0.000541  0.516066  1
  W  W14  1  0.813837  0.500541  0.016066  1
  W  W15  1  0.824575  0.000889  0.671320  1
  O  O16  1  0.010890  0.212257  0.496928  1
  O  O17  1  0.998363  0.289143  0.690300  1
  O  O18  1  0.116851  0.745369  0.851346  1
  O  O19  1  0.070595  0.297678  0.032559  1
  O  O20  1  0.117481  0.245258  0.835538  1
  O  O21  1  0.083016  0.799688  0.655104  1
  O  O22  1  0.224286  0.107076  0.244685  1
  O  O23  1  0.234302  0.609520  0.442839  1
  O  O24  1  0.254940  0.415076  0.593727  1
  O  O25  1  0.245060  0.915076  0.093727  1
  O  O26  1  0.265698  0.109520  0.942839  1
  O  O27  1  0.275714  0.607076  0.744685  1
  O  O28  1  0.416984  0.299688  0.155104  1
  O  O29  1  0.382519  0.745258  0.335538  1
  O  O30  1  0.429405  0.797678  0.532559  1
  O  O31  1  0.383149  0.245369  0.351346  1
  O  O32  1  0.501637  0.789143  0.190300  1
  O  O33  1  0.489110  0.712257  0.996928  1
  O  O34  1  0.510890  0.287743  0.496928  1
  O  O35  1  0.498363  0.210857  0.690300  1
  O  O36  1  0.616851  0.754631  0.851346  1
  O  O37  1  0.570595  0.202322  0.032559  1
  O  O38  1  0.617481  0.254742  0.835538  1
  O  O39  1  0.583016  0.700312  0.655104  1
  O  O40  1  0.724286  0.392924  0.244685  1
  O  O41  1  0.734302  0.890480  0.442839  1
  O  O42  1  0.754940  0.084924  0.593727  1
  O  O43  1  0.745060  0.584924  0.093727  1
  O  O44  1  0.765698  0.390480  0.942839  1
  O  O45  1  0.775714  0.892924  0.744685  1
  O  O46  1  0.916984  0.200312  0.155104  1
  O  O47  1  0.882519  0.754742  0.335538  1
  O  O48  1  0.929405  0.702322  0.532559  1
  O  O49  1  0.883149  0.254631  0.351346  1
  O  O50  1  0.001637  0.710857  0.190300  1
  O  O51  1  0.989110  0.787743  0.996928  1
