# generated using pymatgen
data_Gd8Zr7O26
_symmetry_space_group_name_H-M   'P 1'
_cell_length_a   7.54800539
_cell_length_b   7.54800603
_cell_length_c   14.62561772
_cell_angle_alpha   61.07564135
_cell_angle_beta   61.07563865
_cell_angle_gamma   60.57560852
_symmetry_Int_Tables_number   1
_chemical_formula_structural   Gd8Zr7O26
_chemical_formula_sum   'Gd8 Zr7 O26'
_cell_volume   601.24251690
_cell_formula_units_Z   1
loop_
 _symmetry_equiv_pos_site_id
 _symmetry_equiv_pos_as_xyz
  1  'x, y, z'
loop_
 _atom_site_type_symbol
 _atom_site_label
 _atom_site_symmetry_multiplicity
 _atom_site_fract_x
 _atom_site_fract_y
 _atom_site_fract_z
 _atom_site_occupancy
  Gd  Gd0  1  0.000000  0.000000  0.000000  1
  Gd  Gd1  1  0.500000  0.000000  0.000000  1
  Gd  Gd2  1  0.994614  0.994614  0.246716  1
  Gd  Gd3  1  0.000000  0.500000  0.000000  1
  Gd  Gd4  1  0.500000  0.000000  0.500000  1
  Gd  Gd5  1  0.000000  0.500000  0.500000  1
  Gd  Gd6  1  0.000000  0.000000  0.500000  1
  Gd  Gd7  1  0.005386  0.005386  0.753284  1
  Zr  Zr8  1  0.481138  0.481138  0.263030  1
  Zr  Zr9  1  0.500000  0.500000  0.500000  1
  Zr  Zr10  1  0.502551  0.004870  0.232585  1
  Zr  Zr11  1  0.518862  0.518862  0.736970  1
  Zr  Zr12  1  0.004870  0.502551  0.232585  1
  Zr  Zr13  1  0.497449  0.995130  0.767415  1
  Zr  Zr14  1  0.995130  0.497449  0.767415  1
  O  O15  1  0.131028  0.131028  0.064615  1
  O  O16  1  0.159655  0.159655  0.281944  1
  O  O17  1  0.144763  0.591208  0.069454  1
  O  O18  1  0.128061  0.128061  0.561355  1
  O  O19  1  0.158080  0.584771  0.289895  1
  O  O20  1  0.591208  0.144763  0.069454  1
  O  O21  1  0.584771  0.158080  0.289895  1
  O  O22  1  0.158065  0.158065  0.798212  1
  O  O23  1  0.401024  0.401024  0.424049  1
  O  O24  1  0.431322  0.810376  0.193410  1
  O  O25  1  0.165442  0.588273  0.585292  1
  O  O26  1  0.411727  0.834558  0.414708  1
  O  O27  1  0.189624  0.568678  0.806590  1
  O  O28  1  0.588273  0.165442  0.585292  1
  O  O29  1  0.810376  0.431322  0.193410  1
  O  O30  1  0.568678  0.189624  0.806590  1
  O  O31  1  0.841935  0.841935  0.201788  1
  O  O32  1  0.598976  0.598976  0.575951  1
  O  O33  1  0.834558  0.411727  0.414708  1
  O  O34  1  0.415229  0.841920  0.710105  1
  O  O35  1  0.408792  0.855237  0.930546  1
  O  O36  1  0.841920  0.415229  0.710105  1
  O  O37  1  0.871939  0.871939  0.438645  1
  O  O38  1  0.855237  0.408792  0.930546  1
  O  O39  1  0.840345  0.840345  0.718056  1
  O  O40  1  0.868972  0.868972  0.935385  1
