# generated using pymatgen
data_Gd2Zr2O7
_symmetry_space_group_name_H-M   'P 1'
_cell_length_a   7.58168041
_cell_length_b   15.06154930
_cell_length_c   13.02694947
_cell_angle_alpha   30.13000669
_cell_angle_beta   54.40868733
_cell_angle_gamma   59.77613794
_symmetry_Int_Tables_number   1
_chemical_formula_structural   Gd2Zr2O7
_chemical_formula_sum   'Gd8 Zr8 O28'
_cell_volume   607.21391831
_cell_formula_units_Z   4
loop_
 _symmetry_equiv_pos_site_id
 _symmetry_equiv_pos_as_xyz
  1  'x, y, z'
loop_
 _atom_site_type_symbol
 _atom_site_label
 _atom_site_symmetry_multiplicity
 _atom_site_fract_x
 _atom_site_fract_y
 _atom_site_fract_z
 _atom_site_occupancy
  Gd  Gd0  1  0.125000  0.250000  0.125000  1
  Gd  Gd1  1  0.125000  0.250000  0.625000  1
  Gd  Gd2  1  0.124992  0.489337  0.635665  1
  Gd  Gd3  1  0.625000  0.750000  0.125000  1
  Gd  Gd4  1  0.625005  0.489337  0.635665  1
  Gd  Gd5  1  0.125008  0.010663  0.614335  1
  Gd  Gd6  1  0.625000  0.750000  0.625000  1
  Gd  Gd7  1  0.624995  0.010663  0.614335  1
  O  O8  1  0.996858  0.226742  0.025534  1
  O  O9  1  0.253142  0.273258  0.224466  1
  O  O10  1  0.498589  0.226742  0.025534  1
  O  O11  1  0.033259  0.698852  0.055209  1
  O  O12  1  0.996870  0.273260  0.479011  1
  O  O13  1  0.232025  0.991381  0.776594  1
  O  O14  1  0.457032  0.502951  0.040018  1
  O  O15  1  0.017975  0.508619  0.473406  1
  O  O16  1  0.514287  0.009096  0.476618  1
  O  O17  1  0.498587  0.273260  0.479011  1
  O  O18  1  0.253130  0.226740  0.770989  1
  O  O19  1  0.458620  0.698852  0.055209  1
  O  O20  1  0.216741  0.801148  0.194791  1
  O  O21  1  0.751411  0.273258  0.224466  1
  O  O22  1  0.033257  0.801129  0.452928  1
  O  O23  1  0.792987  0.502956  0.204057  1
  O  O24  1  0.457013  0.997044  0.045943  1
  O  O25  1  0.232008  0.508621  0.759371  1
  O  O26  1  0.017992  0.991379  0.490629  1
  O  O27  1  0.514287  0.490901  0.494812  1
  O  O28  1  0.458629  0.801129  0.452928  1
  O  O29  1  0.216743  0.698871  0.797072  1
  O  O30  1  0.751413  0.226740  0.770989  1
  O  O31  1  0.791381  0.801148  0.194791  1
  O  O32  1  0.792968  0.997049  0.209982  1
  O  O33  1  0.735713  0.490904  0.773382  1
  O  O34  1  0.791371  0.698871  0.797072  1
  O  O35  1  0.735713  0.009099  0.755188  1
  Zr  Zr36  1  0.125011  0.003813  0.121177  1
  Zr  Zr37  1  0.124989  0.496187  0.128823  1
  Zr  Zr38  1  0.625008  0.003813  0.121177  1
  Zr  Zr39  1  0.625000  0.250000  0.125000  1
  Zr  Zr40  1  0.125000  0.750000  0.125000  1
  Zr  Zr41  1  0.624992  0.496187  0.128823  1
  Zr  Zr42  1  0.625000  0.250000  0.625000  1
  Zr  Zr43  1  0.125000  0.750000  0.625000  1
