# generated using pymatgen
data_Gd2Zr2O7
_symmetry_space_group_name_H-M   'P 1'
_cell_length_a   7.50909432
_cell_length_b   6.98550643
_cell_length_c   13.30387563
_cell_angle_alpha   90.00000000
_cell_angle_beta   115.20772334
_cell_angle_gamma   90.00000000
_symmetry_Int_Tables_number   1
_chemical_formula_structural   Gd2Zr2O7
_chemical_formula_sum   'Gd8 Zr8 O28'
_cell_volume   631.39575382
_cell_formula_units_Z   4
loop_
 _symmetry_equiv_pos_site_id
 _symmetry_equiv_pos_as_xyz
  1  'x, y, z'
loop_
 _atom_site_type_symbol
 _atom_site_label
 _atom_site_symmetry_multiplicity
 _atom_site_fract_x
 _atom_site_fract_y
 _atom_site_fract_z
 _atom_site_occupancy
  Gd  Gd0  1  0.163342  0.889957  0.638731  1
  Gd  Gd1  1  0.336658  0.389957  0.861269  1
  Gd  Gd2  1  0.132884  0.679351  0.386961  1
  Gd  Gd3  1  0.367116  0.179351  0.113039  1
  Gd  Gd4  1  0.632884  0.820649  0.886961  1
  Gd  Gd5  1  0.867116  0.320649  0.613039  1
  Gd  Gd6  1  0.663342  0.610043  0.138731  1
  Gd  Gd7  1  0.836658  0.110043  0.361269  1
  Zr  Zr8  1  0.147381  0.858390  0.898412  1
  Zr  Zr9  1  0.352619  0.358390  0.601588  1
  Zr  Zr10  1  0.333782  0.112404  0.386241  1
  Zr  Zr11  1  0.166218  0.612404  0.113759  1
  Zr  Zr12  1  0.833782  0.387596  0.886241  1
  Zr  Zr13  1  0.666218  0.887596  0.613759  1
  Zr  Zr14  1  0.647381  0.641610  0.398412  1
  Zr  Zr15  1  0.852619  0.141610  0.101588  1
  O  O16  1  0.942779  0.680021  0.935886  1
  O  O17  1  0.198269  0.228981  0.674697  1
  O  O18  1  0.309482  0.103150  0.931833  1
  O  O19  1  0.065162  0.060954  0.252079  1
  O  O20  1  0.005111  0.606810  0.202854  1
  O  O21  1  0.190518  0.603150  0.568167  1
  O  O22  1  0.301731  0.728981  0.825303  1
  O  O23  1  0.158610  0.998967  0.471174  1
  O  O24  1  0.263033  0.381189  0.423731  1
  O  O25  1  0.565162  0.439046  0.752079  1
  O  O26  1  0.557221  0.180021  0.564114  1
  O  O27  1  0.505111  0.893190  0.702854  1
  O  O28  1  0.658610  0.501033  0.971174  1
  O  O29  1  0.763033  0.118811  0.923731  1
  O  O30  1  0.236967  0.881189  0.076269  1
  O  O31  1  0.341390  0.498967  0.028826  1
  O  O32  1  0.494889  0.106810  0.297146  1
  O  O33  1  0.442779  0.819979  0.435886  1
  O  O34  1  0.434838  0.560954  0.247921  1
  O  O35  1  0.736967  0.618811  0.576269  1
  O  O36  1  0.841390  0.001033  0.528826  1
  O  O37  1  0.698269  0.271019  0.174697  1
  O  O38  1  0.809482  0.396850  0.431833  1
  O  O39  1  0.994889  0.393190  0.797146  1
  O  O40  1  0.934838  0.939046  0.747921  1
  O  O41  1  0.690518  0.896850  0.068167  1
  O  O42  1  0.801731  0.771019  0.325303  1
  O  O43  1  0.057221  0.319979  0.064114  1
