# generated using pymatgen
data_Hf3Cu8
_symmetry_space_group_name_H-M   'P 1'
_cell_length_a   7.81923206
_cell_length_b   8.12440662
_cell_length_c   9.93620118
_cell_angle_alpha   90.00000000
_cell_angle_beta   90.00000000
_cell_angle_gamma   90.00000000
_symmetry_Int_Tables_number   1
_chemical_formula_structural   Hf3Cu8
_chemical_formula_sum   'Hf12 Cu32'
_cell_volume   631.21328368
_cell_formula_units_Z   4
loop_
 _symmetry_equiv_pos_site_id
 _symmetry_equiv_pos_as_xyz
  1  'x, y, z'
loop_
 _atom_site_type_symbol
 _atom_site_label
 _atom_site_symmetry_multiplicity
 _atom_site_fract_x
 _atom_site_fract_y
 _atom_site_fract_z
 _atom_site_occupancy
  Cu  Cu0  1  0.177013  0.750000  0.016850  1
  Cu  Cu1  1  0.677013  0.750000  0.483150  1
  Cu  Cu2  1  0.822987  0.250000  0.983150  1
  Cu  Cu3  1  0.322987  0.250000  0.516850  1
  Cu  Cu4  1  0.129436  0.750000  0.265350  1
  Cu  Cu5  1  0.629436  0.750000  0.234650  1
  Cu  Cu6  1  0.870564  0.250000  0.734650  1
  Cu  Cu7  1  0.370564  0.250000  0.765350  1
  Cu  Cu8  1  0.383525  0.750000  0.403818  1
  Cu  Cu9  1  0.883525  0.750000  0.096182  1
  Cu  Cu10  1  0.616475  0.250000  0.596182  1
  Cu  Cu11  1  0.116475  0.250000  0.903818  1
  Cu  Cu12  1  0.378651  0.575000  0.159868  1
  Cu  Cu13  1  0.878651  0.925000  0.340132  1
  Cu  Cu14  1  0.621349  0.075000  0.840132  1
  Cu  Cu15  1  0.121349  0.425000  0.659868  1
  Cu  Cu16  1  0.621349  0.425000  0.840132  1
  Cu  Cu17  1  0.121349  0.075000  0.659868  1
  Cu  Cu18  1  0.378651  0.925000  0.159868  1
  Cu  Cu19  1  0.878651  0.575000  0.340132  1
  Cu  Cu20  1  0.198413  0.499715  0.406766  1
  Cu  Cu21  1  0.698413  0.000285  0.093234  1
  Cu  Cu22  1  0.801587  0.999715  0.593234  1
  Cu  Cu23  1  0.301587  0.500285  0.906766  1
  Cu  Cu24  1  0.801587  0.500285  0.593234  1
  Cu  Cu25  1  0.301587  0.999715  0.906766  1
  Cu  Cu26  1  0.198413  0.000285  0.406766  1
  Cu  Cu27  1  0.698413  0.499715  0.093234  1
  Cu  Cu28  1  0.284543  0.250000  0.272789  1
  Cu  Cu29  1  0.784543  0.250000  0.227211  1
  Cu  Cu30  1  0.715457  0.750000  0.727211  1
  Cu  Cu31  1  0.215457  0.750000  0.772789  1
  Hf  Hf32  1  0.039009  0.750000  0.547133  1
  Hf  Hf33  1  0.539009  0.750000  0.952867  1
  Hf  Hf34  1  0.960991  0.250000  0.452867  1
  Hf  Hf35  1  0.460991  0.250000  0.047133  1
  Hf  Hf36  1  0.562044  0.445802  0.359966  1
  Hf  Hf37  1  0.062044  0.054198  0.140034  1
  Hf  Hf38  1  0.437956  0.945802  0.640034  1
  Hf  Hf39  1  0.937956  0.554198  0.859966  1
  Hf  Hf40  1  0.437956  0.554198  0.640034  1
  Hf  Hf41  1  0.937956  0.945802  0.859966  1
  Hf  Hf42  1  0.562044  0.054198  0.359966  1
  Hf  Hf43  1  0.062044  0.445802  0.140034  1
