# generated using pymatgen
data_Hf3Sc4O12
_symmetry_space_group_name_H-M   'P 1'
_cell_length_a   6.18504417
_cell_length_b   6.16954195
_cell_length_c   30.90239945
_cell_angle_alpha   99.40712552
_cell_angle_beta   99.50780567
_cell_angle_gamma   99.48892769
_symmetry_Int_Tables_number   1
_chemical_formula_structural   Hf3Sc4O12
_chemical_formula_sum   'Hf15 Sc20 O60'
_cell_volume   1124.83669276
_cell_formula_units_Z   5
loop_
 _symmetry_equiv_pos_site_id
 _symmetry_equiv_pos_as_xyz
  1  'x, y, z'
loop_
 _atom_site_type_symbol
 _atom_site_label
 _atom_site_symmetry_multiplicity
 _atom_site_fract_x
 _atom_site_fract_y
 _atom_site_fract_z
 _atom_site_occupancy
  Hf  Hf0  1  0.998464  0.998069  0.401242  1
  Hf  Hf1  1  0.694229  0.860632  0.877918  1
  Hf  Hf2  1  0.999143  0.998572  0.201205  1
  Hf  Hf3  1  0.603944  0.302424  0.825635  1
  Hf  Hf4  1  0.143439  0.610782  0.061705  1
  Hf  Hf5  1  0.695831  0.860725  0.678045  1
  Hf  Hf6  1  0.869585  0.393706  0.938809  1
  Hf  Hf7  1  0.605695  0.303880  0.626300  1
  Hf  Hf8  1  0.869427  0.393507  0.739285  1
  Hf  Hf9  1  0.608525  0.314854  0.428419  1
  Hf  Hf10  1  0.867144  0.390539  0.538459  1
  Hf  Hf11  1  0.608488  0.314908  0.227999  1
  Hf  Hf12  1  0.864499  0.388205  0.337766  1
  Hf  Hf13  1  0.604816  0.294214  0.025861  1
  Hf  Hf14  1  0.861358  0.389042  0.137147  1
  Sc  Sc15  1  0.143313  0.607850  0.861682  1
  Sc  Sc16  1  0.001385  0.997592  0.800813  1
  Sc  Sc17  1  0.395246  0.692867  0.971413  1
  Sc  Sc18  1  0.142022  0.606895  0.661497  1
  Sc  Sc19  1  0.000157  0.997016  0.600011  1
  Sc  Sc20  1  0.306164  0.134152  0.920704  1
  Sc  Sc21  1  0.390691  0.689729  0.770564  1
  Sc  Sc22  1  0.148887  0.611126  0.465169  1
  Sc  Sc23  1  0.305037  0.132627  0.720421  1
  Sc  Sc24  1  0.390698  0.690690  0.571610  1
  Sc  Sc25  1  0.148894  0.611207  0.265681  1
  Sc  Sc26  1  0.308792  0.135384  0.521843  1
  Sc  Sc27  1  0.393603  0.687537  0.372432  1
  Sc  Sc28  1  0.998449  0.996225  0.000608  1
  Sc  Sc29  1  0.313179  0.135643  0.322132  1
  Sc  Sc30  1  0.393483  0.689346  0.172148  1
  Sc  Sc31  1  0.684663  0.861229  0.479539  1
  Sc  Sc32  1  0.310144  0.134597  0.121353  1
  Sc  Sc33  1  0.681425  0.857883  0.279097  1
  Sc  Sc34  1  0.688103  0.859837  0.078150  1
  O  O35  1  0.065676  0.673750  0.984360  1
  O  O36  1  0.070481  0.929767  0.865835  1
  O  O37  1  0.064137  0.678307  0.782221  1
  O  O38  1  0.178516  0.421952  0.915700  1
  O  O39  1  0.070462  0.928776  0.665608  1
  O  O40  1  0.062139  0.676631  0.581715  1
  O  O41  1  0.317467  0.092442  0.986790  1
  O  O42  1  0.176858  0.419542  0.715306  1
  O  O43  1  0.435056  0.822190  0.914746  1
  O  O44  1  0.094330  0.938808  0.463498  1
  O  O45  1  0.052619  0.683197  0.378261  1
  O  O46  1  0.432857  0.571778  0.836282  1
  O  O47  1  0.320330  0.095350  0.787636  1
  O  O48  1  0.177471  0.419581  0.515517  1
  O  O49  1  0.434930  0.822496  0.714895  1
  O  O50  1  0.095453  0.939861  0.263515  1
  O  O51  1  0.588488  0.428726  0.965069  1
  O  O52  1  0.053150  0.682907  0.177843  1
  O  O53  1  0.433106  0.572581  0.636528  1
  O  O54  1  0.321702  0.095924  0.588865  1
  O  O55  1  0.581666  0.182686  0.884446  1
  O  O56  1  0.176717  0.415978  0.315680  1
  O  O57  1  0.425709  0.820829  0.515787  1
  O  O58  1  0.672207  0.925631  0.814133  1
  O  O59  1  0.087284  0.930816  0.064632  1
  O  O60  1  0.584133  0.428017  0.764217  1
  O  O61  1  0.421240  0.567318  0.434931  1
  O  O62  1  0.319244  0.101005  0.389592  1
  O  O63  1  0.582562  0.181510  0.684698  1
  O  O64  1  0.174745  0.416676  0.113171  1
  O  O65  1  0.820282  0.576028  0.887050  1
  O  O66  1  0.424686  0.819848  0.315945  1
  O  O67  1  0.672995  0.924497  0.614229  1
  O  O68  1  0.583107  0.425205  0.564180  1
  O  O69  1  0.420309  0.567549  0.235004  1
  O  O70  1  0.901728  0.064311  0.936171  1
  O  O71  1  0.319743  0.100167  0.189211  1
  O  O72  1  0.580122  0.183591  0.484275  1
  O  O73  1  0.819262  0.574761  0.686856  1
  O  O74  1  0.419114  0.816416  0.114533  1
  O  O75  1  0.676529  0.919080  0.412301  1
  O  O76  1  0.583419  0.422690  0.363783  1
  O  O77  1  0.930323  0.326655  0.816248  1
  O  O78  1  0.421159  0.559927  0.035757  1
  O  O79  1  0.903904  0.063233  0.736396  1
  O  O80  1  0.581862  0.182064  0.284061  1
  O  O81  1  0.820089  0.572603  0.484957  1
  O  O82  1  0.676084  0.918018  0.211845  1
  O  O83  1  0.582680  0.425911  0.163989  1
  O  O84  1  0.930303  0.325785  0.616401  1
  O  O85  1  0.910453  0.065158  0.535652  1
  O  O86  1  0.579190  0.185144  0.085080  1
  O  O87  1  0.819095  0.571344  0.284476  1
  O  O88  1  0.670752  0.929980  0.013806  1
  O  O89  1  0.934454  0.326411  0.415406  1
  O  O90  1  0.906938  0.059907  0.335709  1
  O  O91  1  0.822514  0.571180  0.083975  1
  O  O92  1  0.934178  0.326193  0.215574  1
  O  O93  1  0.908408  0.063875  0.135857  1
  O  O94  1  0.936655  0.323950  0.017137  1
