# generated using pymatgen
data_HfB4Ir3
_symmetry_space_group_name_H-M   'P 1'
_cell_length_a   3.52577185
_cell_length_b   7.62127400
_cell_length_c   7.62121123
_cell_angle_alpha   119.99996020
_cell_angle_beta   90.00000000
_cell_angle_gamma   90.00000000
_symmetry_Int_Tables_number   1
_chemical_formula_structural   HfB4Ir3
_chemical_formula_sum   'Hf2 B8 Ir6'
_cell_volume   177.35220252
_cell_formula_units_Z   2
loop_
 _symmetry_equiv_pos_site_id
 _symmetry_equiv_pos_as_xyz
  1  'x, y, z'
loop_
 _atom_site_type_symbol
 _atom_site_label
 _atom_site_symmetry_multiplicity
 _atom_site_fract_x
 _atom_site_fract_y
 _atom_site_fract_z
 _atom_site_occupancy
  Hf  Hf0  1  0.250000  0.666650  0.333328  1
  Hf  Hf1  1  0.750000  0.333350  0.666672  1
  B  B2  1  0.750000  0.949259  0.551316  1
  B  B3  1  0.750000  0.448689  0.397910  1
  B  B4  1  0.750000  0.602064  0.050769  1
  B  B5  1  0.250000  0.050741  0.448684  1
  B  B6  1  0.250000  0.551311  0.602090  1
  B  B7  1  0.250000  0.397936  0.949231  1
  B  B8  1  0.500000  0.000000  0.000000  1
  B  B9  1  0.000000  0.000000  0.000000  1
  Ir  Ir10  1  0.750000  0.743471  0.668015  1
  Ir  Ir11  1  0.750000  0.331986  0.075476  1
  Ir  Ir12  1  0.750000  0.924530  0.256536  1
  Ir  Ir13  1  0.250000  0.256529  0.331985  1
  Ir  Ir14  1  0.250000  0.668014  0.924524  1
  Ir  Ir15  1  0.250000  0.075470  0.743464  1
