# generated using pymatgen
data_HfCrO4
_symmetry_space_group_name_H-M   'P 1'
_cell_length_a   4.68677393
_cell_length_b   11.76744747
_cell_length_c   4.90248942
_cell_angle_alpha   89.99968856
_cell_angle_beta   90.00116511
_cell_angle_gamma   89.99901890
_symmetry_Int_Tables_number   1
_chemical_formula_structural   HfCrO4
_chemical_formula_sum   'Hf4 Cr4 O16'
_cell_volume   270.37898839
_cell_formula_units_Z   4
loop_
 _symmetry_equiv_pos_site_id
 _symmetry_equiv_pos_as_xyz
  1  'x, y, z'
loop_
 _atom_site_type_symbol
 _atom_site_label
 _atom_site_symmetry_multiplicity
 _atom_site_fract_x
 _atom_site_fract_y
 _atom_site_fract_z
 _atom_site_occupancy
  Hf  Hf0  1  0.999997  0.172739  0.250013  1
  Hf  Hf1  1  0.000014  0.827261  0.750007  1
  Hf  Hf2  1  0.499993  0.672739  0.249978  1
  Hf  Hf3  1  0.500008  0.327263  0.749992  1
  Cr  Cr4  1  -0.000017  0.433289  0.250005  1
  Cr  Cr5  1  0.000012  0.566694  0.749972  1
  Cr  Cr6  1  0.499987  0.066752  0.750006  1
  Cr  Cr7  1  0.500013  0.933277  0.250012  1
  O  O8  1  0.223011  0.314029  0.413035  1
  O  O9  1  0.222998  0.685960  0.913049  1
  O  O10  1  0.271949  0.055535  0.430478  1
  O  O11  1  0.271929  0.944486  0.930488  1
  O  O12  1  0.228035  0.444460  0.930495  1
  O  O13  1  0.228051  0.555514  0.430505  1
  O  O14  1  0.277000  0.185973  0.913046  1
  O  O15  1  0.277021  0.814038  0.413051  1
  O  O16  1  0.723000  0.185979  0.586946  1
  O  O17  1  0.722985  0.814036  0.086952  1
  O  O18  1  0.771954  0.444455  0.569493  1
  O  O19  1  0.771946  0.555520  0.069514  1
  O  O20  1  0.728046  0.055533  0.069510  1
  O  O21  1  0.728062  0.944488  0.569515  1
  O  O22  1  0.777012  0.685950  0.586971  1
  O  O23  1  0.776993  0.314033  0.086968  1
