# generated using pymatgen
data_HfV2O7
_symmetry_space_group_name_H-M   'P 1'
_cell_length_a   8.98861954
_cell_length_b   8.98861954
_cell_length_c   8.98861954
_cell_angle_alpha   90.00000000
_cell_angle_beta   90.00000000
_cell_angle_gamma   90.00000000
_symmetry_Int_Tables_number   1
_chemical_formula_structural   HfV2O7
_chemical_formula_sum   'Hf4 V8 O28'
_cell_volume   726.23804365
_cell_formula_units_Z   4
loop_
 _symmetry_equiv_pos_site_id
 _symmetry_equiv_pos_as_xyz
  1  'x, y, z'
loop_
 _atom_site_type_symbol
 _atom_site_label
 _atom_site_symmetry_multiplicity
 _atom_site_fract_x
 _atom_site_fract_y
 _atom_site_fract_z
 _atom_site_occupancy
  O  O0  1  0.500000  0.000000  0.000000  1
  O  O1  1  0.000000  0.000000  0.500000  1
  O  O2  1  0.000000  0.500000  0.000000  1
  O  O3  1  0.500000  0.500000  0.500000  1
  O  O4  1  0.936571  0.202333  0.090698  1
  O  O5  1  0.436571  0.297667  0.909302  1
  O  O6  1  0.063429  0.702333  0.409302  1
  O  O7  1  0.297667  0.909302  0.436571  1
  O  O8  1  0.409302  0.063429  0.702333  1
  O  O9  1  0.909302  0.436571  0.297667  1
  O  O10  1  0.202333  0.090698  0.936571  1
  O  O11  1  0.090698  0.936571  0.202333  1
  O  O12  1  0.436571  0.202333  0.409302  1
  O  O13  1  0.409302  0.436571  0.202333  1
  O  O14  1  0.202333  0.409302  0.436571  1
  O  O15  1  0.297667  0.590698  0.936571  1
  O  O16  1  0.909302  0.063429  0.797667  1
  O  O17  1  0.797667  0.909302  0.063429  1
  O  O18  1  0.090698  0.563429  0.702333  1
  O  O19  1  0.590698  0.936571  0.297667  1
  O  O20  1  0.702333  0.090698  0.563429  1
  O  O21  1  0.936571  0.297667  0.590698  1
  O  O22  1  0.563429  0.702333  0.090698  1
  O  O23  1  0.063429  0.797667  0.909302  1
  O  O24  1  0.563429  0.797667  0.590698  1
  O  O25  1  0.590698  0.563429  0.797667  1
  O  O26  1  0.797667  0.590698  0.563429  1
  O  O27  1  0.702333  0.409302  0.063429  1
  V  V28  1  0.384975  0.115025  0.884975  1
  V  V29  1  0.115025  0.884975  0.384975  1
  V  V30  1  0.884975  0.384975  0.115025  1
  V  V31  1  0.615025  0.615025  0.615025  1
  V  V32  1  0.615025  0.884975  0.115025  1
  V  V33  1  0.884975  0.115025  0.615025  1
  V  V34  1  0.115025  0.615025  0.884975  1
  V  V35  1  0.384975  0.384975  0.384975  1
  Hf  Hf36  1  0.000000  0.500000  0.500000  1
  Hf  Hf37  1  0.500000  0.500000  0.000000  1
  Hf  Hf38  1  0.500000  0.000000  0.500000  1
  Hf  Hf39  1  0.000000  0.000000  0.000000  1
