# generated using pymatgen
data_HfZrO4
_symmetry_space_group_name_H-M   'P 1'
_cell_length_a   7.24429061
_cell_length_b   7.27880865
_cell_length_c   10.34364461
_cell_angle_alpha   44.69635107
_cell_angle_beta   89.99669348
_cell_angle_gamma   60.18970134
_symmetry_Int_Tables_number   1
_chemical_formula_structural   HfZrO4
_chemical_formula_sum   'Hf4 Zr4 O16'
_cell_volume   271.39868902
_cell_formula_units_Z   4
loop_
 _symmetry_equiv_pos_site_id
 _symmetry_equiv_pos_as_xyz
  1  'x, y, z'
loop_
 _atom_site_type_symbol
 _atom_site_label
 _atom_site_symmetry_multiplicity
 _atom_site_fract_x
 _atom_site_fract_y
 _atom_site_fract_z
 _atom_site_occupancy
  Hf  Hf0  1  0.242411  0.501628  0.120048  1
  Hf  Hf1  1  0.240241  0.004468  0.118940  1
  Hf  Hf2  1  0.742086  0.004196  0.118999  1
  Hf  Hf3  1  0.741461  0.503770  0.619899  1
  Zr  Zr4  1  0.241002  0.005847  0.619660  1
  Zr  Zr5  1  0.239305  0.507720  0.618863  1
  Zr  Zr6  1  0.740206  0.506099  0.119181  1
  Zr  Zr7  1  0.739619  0.005668  0.619845  1
  O  O8  1  0.963124  0.512613  0.471445  1
  O  O9  1  0.007450  0.976809  0.273374  1
  O  O10  1  0.006482  0.506753  0.226460  1
  O  O11  1  0.969225  0.044812  0.492567  1
  O  O12  1  0.965571  0.052091  0.991444  1
  O  O13  1  0.006706  0.978117  0.777919  1
  O  O14  1  0.007699  0.493721  0.732421  1
  O  O15  1  0.513924  0.961715  0.533045  1
  O  O16  1  0.513430  0.496880  0.979409  1
  O  O17  1  0.475084  0.031904  0.747571  1
  O  O18  1  0.479993  0.503869  0.727309  1
  O  O19  1  0.513540  0.962605  0.036932  1
  O  O20  1  0.474465  0.032263  0.248951  1
  O  O21  1  0.468385  0.516478  0.221587  1
  O  O22  1  0.514049  0.506214  0.474509  1
  O  O23  1  0.972852  0.503417  0.976060  1
