# generated using pymatgen
data_Hf54Os17
_symmetry_space_group_name_H-M   'P 1'
_cell_length_a   12.31234135
_cell_length_b   12.31234098
_cell_length_c   12.31234125
_cell_angle_alpha   107.15703190
_cell_angle_beta   109.88368682
_cell_angle_gamma   111.40121928
_symmetry_Int_Tables_number   1
_chemical_formula_structural   Hf54Os17
_chemical_formula_sum   'Hf54 Os17'
_cell_volume   1434.80034796
_cell_formula_units_Z   1
loop_
 _symmetry_equiv_pos_site_id
 _symmetry_equiv_pos_as_xyz
  1  'x, y, z'
loop_
 _atom_site_type_symbol
 _atom_site_label
 _atom_site_symmetry_multiplicity
 _atom_site_fract_x
 _atom_site_fract_y
 _atom_site_fract_z
 _atom_site_occupancy
  Hf  Hf0  1  0.875807  0.085263  0.577699  1
  Hf  Hf1  1  0.065898  0.598349  0.897082  1
  Hf  Hf2  1  0.108555  0.278698  0.170142  1
  Hf  Hf3  1  0.492436  0.701892  0.577699  1
  Hf  Hf4  1  0.193579  0.128336  0.708614  1
  Hf  Hf5  1  0.766390  0.374064  0.392327  1
  Hf  Hf6  1  0.419723  0.484966  0.291386  1
  Hf  Hf7  1  0.934102  0.831184  0.532451  1
  Hf  Hf8  1  0.286649  0.178612  0.108036  1
  Hf  Hf9  1  0.188001  0.100755  0.288756  1
  Hf  Hf10  1  0.507564  0.298108  0.422301  1
  Hf  Hf11  1  0.929424  0.821388  0.108036  1
  Hf  Hf12  1  0.390489  0.390489  0.000000  1
  Hf  Hf13  1  0.811999  0.100755  0.912754  1
  Hf  Hf14  1  0.891444  0.721302  0.829858  1
  Hf  Hf15  1  0.124193  0.914737  0.422301  1
  Hf  Hf16  1  0.601135  0.935421  0.334286  1
  Hf  Hf17  1  0.419723  0.128336  0.934757  1
  Hf  Hf18  1  0.507564  0.085263  0.209456  1
  Hf  Hf19  1  0.580277  0.871664  0.065243  1
  Hf  Hf20  1  0.108555  0.938413  0.829858  1
  Hf  Hf21  1  0.321682  0.404361  0.726042  1
  Hf  Hf22  1  0.678318  0.595639  0.273958  1
  Hf  Hf23  1  0.065898  0.168816  0.467549  1
  Hf  Hf24  1  0.321682  0.595639  0.917321  1
  Hf  Hf25  1  0.000000  0.645089  0.645089  1
  Hf  Hf26  1  0.298732  0.401651  0.467549  1
  Hf  Hf27  1  0.811999  0.899245  0.711244  1
  Hf  Hf28  1  0.701268  0.168816  0.102918  1
  Hf  Hf29  1  0.934102  0.401651  0.102918  1
  Hf  Hf30  1  0.875807  0.298108  0.790544  1
  Hf  Hf31  1  1.000000  0.354911  0.354911  1
  Hf  Hf32  1  0.701268  0.598349  0.532451  1
  Hf  Hf33  1  0.606877  0.000000  0.606877  1
  Hf  Hf34  1  0.018263  0.625936  0.392327  1
  Hf  Hf35  1  0.806421  0.515034  0.934757  1
  Hf  Hf36  1  0.713351  0.821388  0.891964  1
  Hf  Hf37  1  0.070576  0.178612  0.891964  1
  Hf  Hf38  1  0.981737  0.374064  0.607673  1
  Hf  Hf39  1  0.233610  0.625936  0.607673  1
  Hf  Hf40  1  0.193579  0.484966  0.065243  1
  Hf  Hf41  1  0.298732  0.831184  0.897082  1
  Hf  Hf42  1  0.678318  0.404361  0.082679  1
  Hf  Hf43  1  0.398865  0.064579  0.665714  1
  Hf  Hf44  1  0.393123  1.000000  0.393123  1
  Hf  Hf45  1  0.398865  0.733150  0.334286  1
  Hf  Hf46  1  0.891444  0.061587  0.170142  1
  Hf  Hf47  1  0.188001  0.899245  0.087246  1
  Hf  Hf48  1  0.609511  0.609511  1.000000  1
  Hf  Hf49  1  0.492436  0.914737  0.790544  1
  Hf  Hf50  1  0.601135  0.266850  0.665714  1
  Hf  Hf51  1  0.124193  0.701892  0.209456  1
  Hf  Hf52  1  0.580277  0.515034  0.708614  1
  Hf  Hf53  1  0.806421  0.871664  0.291386  1
  Os  Os54  1  0.690379  0.190379  0.500000  1
  Os  Os55  1  0.800866  0.135591  0.334725  1
  Os  Os56  1  0.667547  0.783675  0.451222  1
  Os  Os57  1  0.458974  0.671185  0.787789  1
  Os  Os58  1  0.667547  0.216325  0.883872  1
  Os  Os59  1  0.199134  0.533859  0.334725  1
  Os  Os60  1  0.800866  0.466141  0.665275  1
  Os  Os61  1  0.332453  0.216325  0.548778  1
  Os  Os62  1  0.883396  0.671185  0.212211  1
  Os  Os63  1  0.500000  0.663077  0.163077  1
  Os  Os64  1  0.500000  0.336923  0.836923  1
  Os  Os65  1  0.000000  0.000000  0.000000  1
  Os  Os66  1  0.309621  0.809621  0.500000  1
  Os  Os67  1  0.332453  0.783675  0.116128  1
  Os  Os68  1  0.541026  0.328815  0.212211  1
  Os  Os69  1  0.116604  0.328815  0.787789  1
  Os  Os70  1  0.199134  0.864409  0.665275  1
