# generated using pymatgen
data_Hf3B2Ir5
_symmetry_space_group_name_H-M   'P 1'
_cell_length_a   3.39401921
_cell_length_b   9.28296059
_cell_length_c   9.28296059
_cell_angle_alpha   90.00000000
_cell_angle_beta   90.00000000
_cell_angle_gamma   90.00000000
_symmetry_Int_Tables_number   1
_chemical_formula_structural   Hf3B2Ir5
_chemical_formula_sum   'Hf6 B4 Ir10'
_cell_volume   292.47403012
_cell_formula_units_Z   2
loop_
 _symmetry_equiv_pos_site_id
 _symmetry_equiv_pos_as_xyz
  1  'x, y, z'
loop_
 _atom_site_type_symbol
 _atom_site_label
 _atom_site_symmetry_multiplicity
 _atom_site_fract_x
 _atom_site_fract_y
 _atom_site_fract_z
 _atom_site_occupancy
  B  B0  1  0.000000  0.880727  0.380727  1
  B  B1  1  0.000000  0.380727  0.119273  1
  B  B2  1  0.000000  0.619273  0.880727  1
  B  B3  1  0.000000  0.119273  0.619273  1
  Hf  Hf4  1  0.000000  0.675879  0.175879  1
  Hf  Hf5  1  0.000000  0.175879  0.324121  1
  Hf  Hf6  1  0.000000  0.324121  0.824121  1
  Hf  Hf7  1  0.000000  0.500000  0.500000  1
  Hf  Hf8  1  0.000000  0.824121  0.675879  1
  Hf  Hf9  1  0.000000  0.000000  0.000000  1
  Ir  Ir10  1  0.500000  0.927370  0.220032  1
  Ir  Ir11  1  0.500000  0.779968  0.927370  1
  Ir  Ir12  1  0.500000  0.720032  0.427370  1
  Ir  Ir13  1  0.500000  0.279968  0.572630  1
  Ir  Ir14  1  0.500000  0.572630  0.720032  1
  Ir  Ir15  1  0.500000  0.427370  0.279968  1
  Ir  Ir16  1  0.500000  0.220032  0.072630  1
  Ir  Ir17  1  0.500000  0.500000  0.000000  1
  Ir  Ir18  1  0.500000  0.000000  0.500000  1
  Ir  Ir19  1  0.500000  0.072630  0.779968  1
