# generated using pymatgen
data_Hf(MoO4)2
_symmetry_space_group_name_H-M   'P 1'
_cell_length_a   10.36959364
_cell_length_b   10.36959337
_cell_length_c   9.57771939
_cell_angle_alpha   90.00000000
_cell_angle_beta   90.00000000
_cell_angle_gamma   120.00000085
_symmetry_Int_Tables_number   1
_chemical_formula_structural   Hf(MoO4)2
_chemical_formula_sum   'Hf6 Mo12 O48'
_cell_volume   891.90007629
_cell_formula_units_Z   6
loop_
 _symmetry_equiv_pos_site_id
 _symmetry_equiv_pos_as_xyz
  1  'x, y, z'
loop_
 _atom_site_type_symbol
 _atom_site_label
 _atom_site_symmetry_multiplicity
 _atom_site_fract_x
 _atom_site_fract_y
 _atom_site_fract_z
 _atom_site_occupancy
  Hf  Hf0  1  0.666667  0.333333  0.530390  1
  Hf  Hf1  1  0.000000  0.000000  0.250000  1
  Hf  Hf2  1  0.333333  0.666667  0.030390  1
  Hf  Hf3  1  0.666667  0.333333  0.969610  1
  Hf  Hf4  1  0.000000  0.000000  0.750000  1
  Hf  Hf5  1  0.333333  0.666667  0.469610  1
  Mo  Mo6  1  0.345968  0.008753  0.757926  1
  Mo  Mo7  1  0.662785  0.654032  0.757926  1
  Mo  Mo8  1  0.337215  0.345968  0.242074  1
  Mo  Mo9  1  0.654032  0.991247  0.242074  1
  Mo  Mo10  1  0.345968  0.337215  0.742074  1
  Mo  Mo11  1  0.008753  0.662785  0.242074  1
  Mo  Mo12  1  0.991247  0.337215  0.757926  1
  Mo  Mo13  1  0.654032  0.662785  0.257926  1
  Mo  Mo14  1  0.008753  0.345968  0.257926  1
  Mo  Mo15  1  0.662785  0.008753  0.742074  1
  Mo  Mo16  1  0.991247  0.654032  0.742074  1
  Mo  Mo17  1  0.337215  0.991247  0.257926  1
  O  O18  1  0.498882  0.181221  0.863255  1
  O  O19  1  0.741347  0.107928  0.103692  1
  O  O20  1  0.982560  0.804398  0.840865  1
  O  O21  1  0.818779  0.317661  0.863255  1
  O  O22  1  0.394341  0.910825  0.635484  1
  O  O23  1  0.892072  0.258653  0.396308  1
  O  O24  1  0.366581  0.107928  0.396308  1
  O  O25  1  0.483515  0.394341  0.364516  1
  O  O26  1  0.821838  0.017440  0.840865  1
  O  O27  1  0.178162  0.195602  0.340865  1
  O  O28  1  0.605659  0.516485  0.135484  1
  O  O29  1  0.516485  0.910825  0.864516  1
  O  O30  1  0.682339  0.501118  0.863255  1
  O  O31  1  0.017440  0.195602  0.159135  1
  O  O32  1  0.089175  0.605659  0.864516  1
  O  O33  1  0.483515  0.089175  0.135484  1
  O  O34  1  0.394341  0.483515  0.864516  1
  O  O35  1  0.195602  0.017440  0.659135  1
  O  O36  1  0.910825  0.516485  0.364516  1
  O  O37  1  0.501118  0.818779  0.136745  1
  O  O38  1  0.258653  0.366581  0.603692  1
  O  O39  1  0.633419  0.741347  0.896308  1
  O  O40  1  0.892072  0.633419  0.103692  1
  O  O41  1  0.498882  0.317661  0.636745  1
  O  O42  1  0.804398  0.821838  0.159135  1
  O  O43  1  0.195602  0.178162  0.840865  1
  O  O44  1  0.910825  0.394341  0.135484  1
  O  O45  1  0.804398  0.982560  0.340865  1
  O  O46  1  0.682339  0.181221  0.636745  1
  O  O47  1  0.633419  0.892072  0.603692  1
  O  O48  1  0.181221  0.682339  0.136745  1
  O  O49  1  0.741347  0.633419  0.396308  1
  O  O50  1  0.178162  0.982560  0.159135  1
  O  O51  1  0.017440  0.821838  0.340865  1
  O  O52  1  0.181221  0.498882  0.363255  1
  O  O53  1  0.516485  0.605659  0.635484  1
  O  O54  1  0.821838  0.804398  0.659135  1
  O  O55  1  0.317661  0.818779  0.363255  1
  O  O56  1  0.107928  0.741347  0.603692  1
  O  O57  1  0.501118  0.682339  0.363255  1
  O  O58  1  0.107928  0.366581  0.896308  1
  O  O59  1  0.089175  0.483515  0.635484  1
  O  O60  1  0.982560  0.178162  0.659135  1
  O  O61  1  0.818779  0.501118  0.636745  1
  O  O62  1  0.317661  0.498882  0.136745  1
  O  O63  1  0.366581  0.258653  0.103692  1
  O  O64  1  0.258653  0.892072  0.896308  1
  O  O65  1  0.605659  0.089175  0.364516  1
