# generated using pymatgen
data_Hf3Sc4O12
_symmetry_space_group_name_H-M   'P 1'
_cell_length_a   6.17800347
_cell_length_b   6.18630312
_cell_length_c   12.31602392
_cell_angle_alpha   99.32635108
_cell_angle_beta   99.30290427
_cell_angle_gamma   99.51399605
_symmetry_Int_Tables_number   1
_chemical_formula_structural   Hf3Sc4O12
_chemical_formula_sum   'Hf6 Sc8 O24'
_cell_volume   449.42574040
_cell_formula_units_Z   2
loop_
 _symmetry_equiv_pos_site_id
 _symmetry_equiv_pos_as_xyz
  1  'x, y, z'
loop_
 _atom_site_type_symbol
 _atom_site_label
 _atom_site_symmetry_multiplicity
 _atom_site_fract_x
 _atom_site_fract_y
 _atom_site_fract_z
 _atom_site_occupancy
  Hf  Hf0  1  0.141426  0.612423  0.656592  1
  Hf  Hf1  1  0.683506  0.857823  0.193879  1
  Hf  Hf2  1  0.995213  0.997573  0.500765  1
  Hf  Hf3  1  0.004787  0.002427  0.999235  1
  Hf  Hf4  1  0.316494  0.142177  0.306121  1
  Hf  Hf5  1  0.858574  0.387577  0.843408  1
  Sc  Sc6  1  0.137079  0.605198  0.156091  1
  Sc  Sc7  1  0.390583  0.687079  0.930298  1
  Sc  Sc8  1  0.392700  0.681686  0.431074  1
  Sc  Sc9  1  0.680086  0.859606  0.694464  1
  Sc  Sc10  1  0.319914  0.140394  0.805536  1
  Sc  Sc11  1  0.609417  0.312921  0.569702  1
  Sc  Sc12  1  0.607300  0.318314  0.068926  1
  Sc  Sc13  1  0.862921  0.394802  0.343909  1
  O  O14  1  0.092684  0.939156  0.660455  1
  O  O15  1  0.090545  0.945340  0.162068  1
  O  O16  1  0.052023  0.679245  0.950975  1
  O  O17  1  0.059874  0.676579  0.460136  1
  O  O18  1  0.415277  0.817405  0.787231  1
  O  O19  1  0.427006  0.825017  0.289600  1
  O  O20  1  0.179271  0.417351  0.287002  1
  O  O21  1  0.174623  0.419286  0.785870  1
  O  O22  1  0.676570  0.908021  0.527559  1
  O  O23  1  0.682615  0.908133  0.031915  1
  O  O24  1  0.419955  0.573541  0.590214  1
  O  O25  1  0.423545  0.584785  0.091495  1
  O  O26  1  0.580045  0.426459  0.909786  1
  O  O27  1  0.576455  0.415215  0.408505  1
  O  O28  1  0.323430  0.091979  0.972441  1
  O  O29  1  0.317385  0.091867  0.468085  1
  O  O30  1  0.825377  0.580714  0.714130  1
  O  O31  1  0.820729  0.582649  0.212998  1
  O  O32  1  0.572994  0.174983  0.210400  1
  O  O33  1  0.584723  0.182595  0.712769  1
  O  O34  1  0.947977  0.320755  0.549025  1
  O  O35  1  0.940126  0.323421  0.039864  1
  O  O36  1  0.907316  0.060844  0.839545  1
  O  O37  1  0.909455  0.054660  0.337931  1
