# generated using pymatgen
data_HfCr2
_symmetry_space_group_name_H-M   'P 1'
_cell_length_a   5.03526521
_cell_length_b   5.03449351
_cell_length_c   16.30448121
_cell_angle_alpha   89.99874424
_cell_angle_beta   90.00060031
_cell_angle_gamma   119.98716718
_symmetry_Int_Tables_number   1
_chemical_formula_structural   HfCr2
_chemical_formula_sum   'Hf8 Cr16'
_cell_volume   357.99082538
_cell_formula_units_Z   8
loop_
 _symmetry_equiv_pos_site_id
 _symmetry_equiv_pos_as_xyz
  1  'x, y, z'
loop_
 _atom_site_type_symbol
 _atom_site_label
 _atom_site_symmetry_multiplicity
 _atom_site_fract_x
 _atom_site_fract_y
 _atom_site_fract_z
 _atom_site_occupancy
  Hf  Hf0  1  -0.000001  -0.000000  0.094465  1
  Hf  Hf1  1  -0.000005  -0.000004  0.594461  1
  Hf  Hf2  1  0.999972  0.999997  0.905543  1
  Hf  Hf3  1  0.000025  -0.000001  0.405539  1
  Hf  Hf4  1  0.333364  0.666663  0.843962  1
  Hf  Hf5  1  0.666629  0.333330  0.343944  1
  Hf  Hf6  1  0.666604  0.333333  0.156045  1
  Hf  Hf7  1  0.333374  0.666663  0.656038  1
  Cr  Cr8  1  0.499976  0.000004  0.999995  1
  Cr  Cr9  1  0.500010  0.000013  0.500014  1
  Cr  Cr10  1  0.999972  0.500001  0.999995  1
  Cr  Cr11  1  0.499973  0.500004  -0.000001  1
  Cr  Cr12  1  0.500011  0.499995  0.500012  1
  Cr  Cr13  1  0.999995  0.499997  0.500014  1
  Cr  Cr14  1  0.333345  0.666680  0.123436  1
  Cr  Cr15  1  0.666614  0.333338  0.623445  1
  Cr  Cr16  1  0.666599  0.333334  0.876563  1
  Cr  Cr17  1  0.333382  0.666673  0.376557  1
  Cr  Cr18  1  0.164455  0.328961  0.249995  1
  Cr  Cr19  1  0.835530  0.671018  0.749997  1
  Cr  Cr20  1  0.671022  0.835531  0.249998  1
  Cr  Cr21  1  0.164474  0.835514  0.249996  1
  Cr  Cr22  1  0.835509  0.164489  0.749993  1
  Cr  Cr23  1  0.328979  0.164467  0.749994  1
