# generated using pymatgen
data_Hf8Ni21
_symmetry_space_group_name_H-M   'P 1'
_cell_length_a   6.40978858
_cell_length_b   7.98549727
_cell_length_c   8.52816396
_cell_angle_alpha   75.13001323
_cell_angle_beta   68.12599675
_cell_angle_gamma   75.46243524
_symmetry_Int_Tables_number   1
_chemical_formula_structural   Hf8Ni21
_chemical_formula_sum   'Hf8 Ni21'
_cell_volume   385.60240613
_cell_formula_units_Z   1
loop_
 _symmetry_equiv_pos_site_id
 _symmetry_equiv_pos_as_xyz
  1  'x, y, z'
loop_
 _atom_site_type_symbol
 _atom_site_label
 _atom_site_symmetry_multiplicity
 _atom_site_fract_x
 _atom_site_fract_y
 _atom_site_fract_z
 _atom_site_occupancy
  Ni  Ni0  1  0.000000  0.500000  0.500000  1
  Ni  Ni1  1  0.514312  0.117478  0.257958  1
  Ni  Ni2  1  0.485688  0.882522  0.742042  1
  Ni  Ni3  1  0.900888  0.217206  0.654676  1
  Ni  Ni4  1  0.099112  0.782794  0.345324  1
  Ni  Ni5  1  0.696184  0.254584  0.958518  1
  Ni  Ni6  1  0.303816  0.745416  0.041482  1
  Ni  Ni7  1  0.863644  0.288914  0.157137  1
  Ni  Ni8  1  0.119058  0.053810  0.849896  1
  Ni  Ni9  1  0.880942  0.946190  0.150104  1
  Ni  Ni10  1  0.483301  0.206152  0.776365  1
  Ni  Ni11  1  0.516699  0.793848  0.223635  1
  Ni  Ni12  1  0.319240  0.242698  0.548715  1
  Ni  Ni13  1  0.680760  0.757302  0.451285  1
  Ni  Ni14  1  0.098643  0.258396  0.347133  1
  Ni  Ni15  1  0.901357  0.741604  0.652867  1
  Ni  Ni16  1  0.286871  0.390642  0.028677  1
  Ni  Ni17  1  0.713129  0.609358  0.971323  1
  Ni  Ni18  1  0.316511  0.599054  0.537054  1
  Ni  Ni19  1  0.683489  0.400946  0.462946  1
  Ni  Ni20  1  0.136356  0.711086  0.842863  1
  Hf  Hf21  1  0.753034  0.063019  0.465788  1
  Hf  Hf22  1  0.246966  0.936981  0.534212  1
  Hf  Hf23  1  0.568812  0.536629  0.745309  1
  Hf  Hf24  1  0.431188  0.463371  0.254691  1
  Hf  Hf25  1  0.930221  0.596683  0.185525  1
  Hf  Hf26  1  0.069779  0.403317  0.814475  1
  Hf  Hf27  1  0.752192  0.937769  0.892723  1
  Hf  Hf28  1  0.247808  0.062231  0.107277  1
