# generated using pymatgen
data_Hf3Sc4O12
_symmetry_space_group_name_H-M   'P 1'
_cell_length_a   6.19325128
_cell_length_b   6.17782303
_cell_length_c   18.44748770
_cell_angle_alpha   99.31191603
_cell_angle_beta   99.48013954
_cell_angle_gamma   99.64895468
_symmetry_Int_Tables_number   1
_chemical_formula_structural   Hf3Sc4O12
_chemical_formula_sum   'Hf9 Sc12 O36'
_cell_volume   673.18047912
_cell_formula_units_Z   3
loop_
 _symmetry_equiv_pos_site_id
 _symmetry_equiv_pos_as_xyz
  1  'x, y, z'
loop_
 _atom_site_type_symbol
 _atom_site_label
 _atom_site_symmetry_multiplicity
 _atom_site_fract_x
 _atom_site_fract_y
 _atom_site_fract_z
 _atom_site_occupancy
  Hf  Hf0  1  0.005178  0.003250  0.668416  1
  Hf  Hf1  1  0.005145  0.004096  0.334904  1
  Hf  Hf2  1  0.141133  0.610358  0.102872  1
  Hf  Hf3  1  0.685343  0.860121  0.796981  1
  Hf  Hf4  1  0.682755  0.856365  0.462108  1
  Hf  Hf5  1  0.869538  0.390420  0.897813  1
  Hf  Hf6  1  0.863636  0.389606  0.564495  1
  Hf  Hf7  1  0.606371  0.295410  0.044317  1
  Hf  Hf8  1  0.860117  0.389575  0.230852  1
  O  O9  1  0.066945  0.673253  0.974410  1
  O  O10  1  0.085098  0.938500  0.774763  1
  O  O11  1  0.056119  0.684392  0.632641  1
  O  O12  1  0.177659  0.418749  0.859740  1
  O  O13  1  0.082334  0.937893  0.441480  1
  O  O14  1  0.053406  0.684970  0.296722  1
  O  O15  1  0.318178  0.095551  0.978740  1
  O  O16  1  0.431187  0.821389  0.859237  1
  O  O17  1  0.172563  0.412681  0.525972  1
  O  O18  1  0.085846  0.929982  0.108044  1
  O  O19  1  0.425226  0.583404  0.727468  1
  O  O20  1  0.319810  0.098461  0.647332  1
  O  O21  1  0.428780  0.820113  0.525497  1
  O  O22  1  0.171114  0.414464  0.188711  1
  O  O23  1  0.588853  0.427961  0.941484  1
  O  O24  1  0.421910  0.584168  0.393741  1
  O  O25  1  0.321123  0.096524  0.314522  1
  O  O26  1  0.416143  0.814244  0.189933  1
  O  O27  1  0.587451  0.181549  0.807509  1
  O  O28  1  0.682077  0.907190  0.687965  1
  O  O29  1  0.581626  0.426740  0.605190  1
  O  O30  1  0.420312  0.558670  0.059601  1
  O  O31  1  0.823679  0.584199  0.813109  1
  O  O32  1  0.588865  0.178170  0.473472  1
  O  O33  1  0.681756  0.904286  0.353215  1
  O  O34  1  0.579832  0.428250  0.272153  1
  O  O35  1  0.900381  0.060325  0.893108  1
  O  O36  1  0.819208  0.580535  0.477960  1
  O  O37  1  0.579645  0.183583  0.141924  1
  O  O38  1  0.670214  0.927952  0.023118  1
  O  O39  1  0.939437  0.327217  0.692570  1
  O  O40  1  0.894090  0.054207  0.560727  1
  O  O41  1  0.820684  0.569440  0.139403  1
  O  O42  1  0.938741  0.327970  0.359003  1
  O  O43  1  0.901581  0.061844  0.227215  1
  O  O44  1  0.935377  0.322490  0.027390  1
  Sc  Sc45  1  0.143140  0.607135  0.772954  1
  Sc  Sc46  1  0.396719  0.689944  0.954355  1
  Sc  Sc47  1  0.141244  0.606306  0.440662  1
  Sc  Sc48  1  0.317068  0.138662  0.868559  1
  Sc  Sc49  1  0.392959  0.684799  0.619643  1
  Sc  Sc50  1  0.998695  0.994987  0.000826  1
  Sc  Sc51  1  0.322337  0.139207  0.535941  1
  Sc  Sc52  1  0.391875  0.686153  0.285637  1
  Sc  Sc53  1  0.312990  0.135799  0.202546  1
  Sc  Sc54  1  0.604626  0.318401  0.711779  1
  Sc  Sc55  1  0.604808  0.319788  0.378248  1
  Sc  Sc56  1  0.687070  0.858304  0.131021  1
