# generated using pymatgen
data_HgMoO4
_symmetry_space_group_name_H-M   'P 1'
_cell_length_a   5.27932499
_cell_length_b   6.33533999
_cell_length_c   6.53201732
_cell_angle_alpha   119.00887763
_cell_angle_beta   109.08611953
_cell_angle_gamma   89.99999998
_symmetry_Int_Tables_number   1
_chemical_formula_structural   HgMoO4
_chemical_formula_sum   'Hg2 Mo2 O8'
_cell_volume   177.20571307
_cell_formula_units_Z   2
loop_
 _symmetry_equiv_pos_site_id
 _symmetry_equiv_pos_as_xyz
  1  'x, y, z'
loop_
 _atom_site_type_symbol
 _atom_site_label
 _atom_site_symmetry_multiplicity
 _atom_site_fract_x
 _atom_site_fract_y
 _atom_site_fract_z
 _atom_site_occupancy
  O  O0  1  0.967840  0.469336  0.226979  1
  O  O1  1  0.532160  0.242357  0.773021  1
  O  O2  1  0.032160  0.530664  0.773021  1
  O  O3  1  0.467840  0.757643  0.226979  1
  O  O4  1  0.031120  0.008008  0.195780  1
  O  O5  1  0.468880  0.812229  0.804220  1
  O  O6  1  0.968880  0.991992  0.804220  1
  O  O7  1  0.531120  0.187771  0.195780  1
  Mo  Mo8  1  0.750000  0.184448  0.000000  1
  Mo  Mo9  1  0.250000  0.815552  0.000000  1
  Hg  Hg10  1  0.500000  0.500000  0.500000  1
  Hg  Hg11  1  0.000000  0.000000  0.500000  1
