# generated using pymatgen
data_HgPd3
_symmetry_space_group_name_H-M   'P 1'
_cell_length_a   5.74618843
_cell_length_b   5.74618729
_cell_length_c   4.69578965
_cell_angle_alpha   90.00000000
_cell_angle_beta   90.00000000
_cell_angle_gamma   119.99999480
_symmetry_Int_Tables_number   1
_chemical_formula_structural   HgPd3
_chemical_formula_sum   'Hg2 Pd6'
_cell_volume   134.27616495
_cell_formula_units_Z   2
loop_
 _symmetry_equiv_pos_site_id
 _symmetry_equiv_pos_as_xyz
  1  'x, y, z'
loop_
 _atom_site_type_symbol
 _atom_site_label
 _atom_site_symmetry_multiplicity
 _atom_site_fract_x
 _atom_site_fract_y
 _atom_site_fract_z
 _atom_site_occupancy
  Hg  Hg0  1  0.333334  0.666668  0.750000  1
  Hg  Hg1  1  0.666667  0.333334  0.250000  1
  Pd  Pd2  1  0.164657  0.329316  0.250000  1
  Pd  Pd3  1  0.670685  0.835344  0.250000  1
  Pd  Pd4  1  0.164658  0.835344  0.250000  1
  Pd  Pd5  1  0.835341  0.670682  0.750000  1
  Pd  Pd6  1  0.329316  0.164658  0.750000  1
  Pd  Pd7  1  0.835342  0.164658  0.750000  1
