# generated using pymatgen
data_HgWO4
_symmetry_space_group_name_H-M   'P 1'
_cell_length_a   5.27409950
_cell_length_b   6.21695720
_cell_length_c   6.58503198
_cell_angle_alpha   118.16758972
_cell_angle_beta   110.77712793
_cell_angle_gamma   89.99999994
_symmetry_Int_Tables_number   1
_chemical_formula_structural   HgWO4
_chemical_formula_sum   'Hg2 W2 O8'
_cell_volume   174.25484554
_cell_formula_units_Z   2
loop_
 _symmetry_equiv_pos_site_id
 _symmetry_equiv_pos_as_xyz
  1  'x, y, z'
loop_
 _atom_site_type_symbol
 _atom_site_label
 _atom_site_symmetry_multiplicity
 _atom_site_fract_x
 _atom_site_fract_y
 _atom_site_fract_z
 _atom_site_occupancy
  O  O0  1  0.975744  0.476048  0.233669  1
  O  O1  1  0.524256  0.242379  0.766331  1
  O  O2  1  0.024256  0.523952  0.766331  1
  O  O3  1  0.475744  0.757621  0.233669  1
  O  O4  1  0.027111  0.003079  0.190623  1
  O  O5  1  0.472889  0.812455  0.809377  1
  O  O6  1  0.972889  0.996922  0.809377  1
  O  O7  1  0.527111  0.187545  0.190623  1
  W  W8  1  0.250000  0.819301  0.000000  1
  W  W9  1  0.750000  0.180699  0.000000  1
  Hg  Hg10  1  0.000000  0.000000  0.500000  1
  Hg  Hg11  1  0.500000  0.500000  0.500000  1
