# generated using pymatgen
data_Hg2Mo5O16
_symmetry_space_group_name_H-M   'P 1'
_cell_length_a   5.64023078
_cell_length_b   9.40430194
_cell_length_c   14.48313812
_cell_angle_alpha   108.36568170
_cell_angle_beta   90.00000000
_cell_angle_gamma   90.00000000
_symmetry_Int_Tables_number   1
_chemical_formula_structural   Hg2Mo5O16
_chemical_formula_sum   'Hg4 Mo10 O32'
_cell_volume   729.09148319
_cell_formula_units_Z   2
loop_
 _symmetry_equiv_pos_site_id
 _symmetry_equiv_pos_as_xyz
  1  'x, y, z'
loop_
 _atom_site_type_symbol
 _atom_site_label
 _atom_site_symmetry_multiplicity
 _atom_site_fract_x
 _atom_site_fract_y
 _atom_site_fract_z
 _atom_site_occupancy
  O  O0  1  0.669187  0.618446  0.020511  1
  O  O1  1  0.669187  0.881554  0.479489  1
  O  O2  1  0.330813  0.381554  0.979489  1
  O  O3  1  0.330813  0.118446  0.520511  1
  O  O4  1  0.856647  0.367687  0.672904  1
  O  O5  1  0.856647  0.132313  0.827096  1
  O  O6  1  0.143353  0.632313  0.327096  1
  O  O7  1  0.143353  0.867687  0.172904  1
  O  O8  1  0.956053  0.587542  0.866117  1
  O  O9  1  0.956053  0.912458  0.633883  1
  O  O10  1  0.043947  0.412458  0.133883  1
  O  O11  1  0.043947  0.087542  0.366117  1
  O  O12  1  0.461800  0.622272  0.833951  1
  O  O13  1  0.461800  0.877728  0.666049  1
  O  O14  1  0.322527  0.143676  0.155109  1
  O  O15  1  0.322527  0.356324  0.344891  1
  O  O16  1  0.677473  0.856324  0.844891  1
  O  O17  1  0.677473  0.643676  0.655109  1
  O  O18  1  0.182466  0.615375  0.677015  1
  O  O19  1  0.182466  0.884625  0.822985  1
  O  O20  1  0.817534  0.384625  0.322985  1
  O  O21  1  0.817534  0.115375  0.177015  1
  O  O22  1  0.098027  0.379606  0.499512  1
  O  O23  1  0.098027  0.120394  0.000488  1
  O  O24  1  0.901973  0.620394  0.500488  1
  O  O25  1  0.901973  0.879606  0.999512  1
  O  O26  1  0.406050  0.858451  0.013209  1
  O  O27  1  0.406050  0.641549  0.486791  1
  O  O28  1  0.593950  0.141549  0.986791  1
  O  O29  1  0.593950  0.358451  0.513209  1
  O  O30  1  0.538200  0.122272  0.333951  1
  O  O31  1  0.538200  0.377728  0.166049  1
  Mo  Mo32  1  0.375164  0.750000  0.750000  1
  Mo  Mo33  1  0.624836  0.250000  0.250000  1
  Mo  Mo34  1  0.722976  0.696861  0.928740  1
  Mo  Mo35  1  0.722976  0.803139  0.571260  1
  Mo  Mo36  1  0.277024  0.303139  0.071260  1
  Mo  Mo37  1  0.277024  0.196861  0.428740  1
  Mo  Mo38  1  0.823630  0.457592  0.586641  1
  Mo  Mo39  1  0.823630  0.042408  0.913359  1
  Mo  Mo40  1  0.176370  0.542408  0.413359  1
  Mo  Mo41  1  0.176370  0.957592  0.086641  1
  Hg  Hg42  1  0.271900  0.390754  0.802016  1
  Hg  Hg43  1  0.271900  0.109246  0.697984  1
  Hg  Hg44  1  0.728100  0.609246  0.197984  1
  Hg  Hg45  1  0.728100  0.890754  0.302016  1
