# generated using pymatgen
data_Hg2Mo2O7
_symmetry_space_group_name_H-M   'P 1'
_cell_length_a   3.99525885
_cell_length_b   6.19355025
_cell_length_c   14.53153651
_cell_angle_alpha   98.87313153
_cell_angle_beta   90.00000000
_cell_angle_gamma   90.00000000
_symmetry_Int_Tables_number   1
_chemical_formula_structural   Hg2Mo2O7
_chemical_formula_sum   'Hg4 Mo4 O14'
_cell_volume   355.27714540
_cell_formula_units_Z   2
loop_
 _symmetry_equiv_pos_site_id
 _symmetry_equiv_pos_as_xyz
  1  'x, y, z'
loop_
 _atom_site_type_symbol
 _atom_site_label
 _atom_site_symmetry_multiplicity
 _atom_site_fract_x
 _atom_site_fract_y
 _atom_site_fract_z
 _atom_site_occupancy
  O  O0  1  0.040123  0.250000  0.750000  1
  O  O1  1  0.959877  0.750000  0.250000  1
  O  O2  1  0.528527  0.509271  0.698087  1
  O  O3  1  0.528527  0.990730  0.801913  1
  O  O4  1  0.471473  0.490731  0.301913  1
  O  O5  1  0.471473  0.009270  0.198088  1
  O  O6  1  0.024487  0.368705  0.571756  1
  O  O7  1  0.024487  0.131296  0.928244  1
  O  O8  1  0.967190  0.195913  0.331261  1
  O  O9  1  0.967190  0.304086  0.168739  1
  O  O10  1  0.032810  0.804087  0.668739  1
  O  O11  1  0.975512  0.631295  0.428244  1
  O  O12  1  0.975512  0.868704  0.071756  1
  O  O13  1  0.032810  0.695913  0.831261  1
  Mo  Mo14  1  0.973023  0.497509  0.686241  1
  Mo  Mo15  1  0.973023  0.002493  0.813759  1
  Mo  Mo16  1  0.026979  0.502491  0.313758  1
  Mo  Mo17  1  0.026979  0.997507  0.186242  1
  Hg  Hg18  1  0.333613  0.582896  0.936962  1
  Hg  Hg19  1  0.333613  0.917105  0.563039  1
  Hg  Hg20  1  0.666386  0.417104  0.063039  1
  Hg  Hg21  1  0.666386  0.082895  0.436962  1
