# generated using pymatgen
data_Hg2WO4
_symmetry_space_group_name_H-M   'P 1'
_cell_length_a   5.06804838
_cell_length_b   7.44288520
_cell_length_c   7.44288520
_cell_angle_alpha   106.35305995
_cell_angle_beta   104.63755275
_cell_angle_gamma   104.63755277
_symmetry_Int_Tables_number   1
_chemical_formula_structural   Hg2WO4
_chemical_formula_sum   'Hg4 W2 O8'
_cell_volume   244.27851800
_cell_formula_units_Z   2
loop_
 _symmetry_equiv_pos_site_id
 _symmetry_equiv_pos_as_xyz
  1  'x, y, z'
loop_
 _atom_site_type_symbol
 _atom_site_label
 _atom_site_symmetry_multiplicity
 _atom_site_fract_x
 _atom_site_fract_y
 _atom_site_fract_z
 _atom_site_occupancy
  O  O0  1  0.296963  0.047702  0.666859  1
  O  O1  1  0.203037  0.333141  0.952298  1
  O  O2  1  0.703037  0.952298  0.333141  1
  O  O3  1  0.796963  0.666859  0.047702  1
  O  O4  1  0.847017  0.915057  0.819532  1
  O  O5  1  0.652983  0.180468  0.084943  1
  O  O6  1  0.347017  0.819532  0.915057  1
  O  O7  1  0.152983  0.084943  0.180468  1
  W  W8  1  0.250000  0.093845  0.906155  1
  W  W9  1  0.750000  0.906155  0.093845  1
  Hg  Hg10  1  0.475955  0.757158  0.528248  1
  Hg  Hg11  1  0.024045  0.471752  0.242842  1
  Hg  Hg12  1  0.524045  0.242842  0.471752  1
  Hg  Hg13  1  0.975955  0.528248  0.757158  1
