# generated using pymatgen
data_Hg2W2O7
_symmetry_space_group_name_H-M   'P 1'
_cell_length_a   9.09400443
_cell_length_b   8.55690949
_cell_length_c   5.31424104
_cell_angle_alpha   97.42922248
_cell_angle_beta   105.92332280
_cell_angle_gamma   105.56430075
_symmetry_Int_Tables_number   1
_chemical_formula_structural   Hg2W2O7
_chemical_formula_sum   'Hg4 W4 O14'
_cell_volume   373.78274973
_cell_formula_units_Z   2
loop_
 _symmetry_equiv_pos_site_id
 _symmetry_equiv_pos_as_xyz
  1  'x, y, z'
loop_
 _atom_site_type_symbol
 _atom_site_label
 _atom_site_symmetry_multiplicity
 _atom_site_fract_x
 _atom_site_fract_y
 _atom_site_fract_z
 _atom_site_occupancy
  Hg  Hg0  1  0.184731  0.810441  0.246671  1
  Hg  Hg1  1  0.286627  0.011142  0.714121  1
  Hg  Hg2  1  0.713373  0.988858  0.285879  1
  Hg  Hg3  1  0.815269  0.189559  0.753329  1
  W  W4  1  0.207587  0.319164  0.219503  1
  W  W5  1  0.343982  0.546719  0.820197  1
  W  W6  1  0.656018  0.453281  0.179803  1
  W  W7  1  0.792413  0.680836  0.780497  1
  O  O8  1  0.008069  0.744239  0.829850  1
  O  O9  1  0.160923  0.445888  0.917073  1
  O  O10  1  0.259901  0.562850  0.464445  1
  O  O11  1  0.391143  0.759834  0.987482  1
  O  O12  1  0.293143  0.297917  0.571748  1
  O  O13  1  0.223859  0.129406  0.046885  1
  O  O14  1  0.431809  0.443073  0.153853  1
  O  O15  1  0.568191  0.556927  0.846147  1
  O  O16  1  0.776141  0.870594  0.953115  1
  O  O17  1  0.706857  0.702083  0.428252  1
  O  O18  1  0.608857  0.240166  0.012518  1
  O  O19  1  0.740099  0.437150  0.535555  1
  O  O20  1  0.839077  0.554112  0.082927  1
  O  O21  1  0.991931  0.255761  0.170150  1
