# generated using pymatgen
data_Ho10Ti6O27
_symmetry_space_group_name_H-M   'P 1'
_cell_length_a   7.39899505
_cell_length_b   7.25256220
_cell_length_c   14.45108086
_cell_angle_alpha   59.87621471
_cell_angle_beta   59.25615032
_cell_angle_gamma   60.65254787
_symmetry_Int_Tables_number   1
_chemical_formula_structural   Ho10Ti6O27
_chemical_formula_sum   'Ho10 Ti6 O27'
_cell_volume   547.28386897
_cell_formula_units_Z   1
loop_
 _symmetry_equiv_pos_site_id
 _symmetry_equiv_pos_as_xyz
  1  'x, y, z'
loop_
 _atom_site_type_symbol
 _atom_site_label
 _atom_site_symmetry_multiplicity
 _atom_site_fract_x
 _atom_site_fract_y
 _atom_site_fract_z
 _atom_site_occupancy
  Ho  Ho0  1  0.538014  0.985041  0.995952  1
  Ho  Ho1  1  0.990048  0.519668  0.235308  1
  Ho  Ho2  1  0.508412  0.498099  0.252528  1
  Ho  Ho3  1  0.999320  0.482168  0.768172  1
  Ho  Ho4  1  0.531395  0.480936  0.503366  1
  Ho  Ho5  1  0.508412  0.988434  0.252528  1
  Ho  Ho6  1  0.550770  0.489520  0.731624  1
  Ho  Ho7  1  0.015500  0.968219  0.274031  1
  Ho  Ho8  1  0.550770  0.996462  0.731624  1
  Ho  Ho9  1  0.463959  0.527520  0.990500  1
  O  O10  1  0.136508  0.156413  0.316287  1
  O  O11  1  0.080836  0.666586  0.042995  1
  O  O12  1  0.613630  0.157267  0.064074  1
  O  O13  1  0.136508  0.574504  0.316287  1
  O  O14  1  0.322736  0.343727  0.477521  1
  O  O15  1  0.371982  0.878303  0.185706  1
  O  O16  1  0.034392  0.777422  0.455382  1
  O  O17  1  0.977177  0.080247  0.863181  1
  O  O18  1  0.613630  0.600954  0.064074  1
  O  O19  1  0.617299  0.100366  0.340985  1
  O  O20  1  0.919232  0.337480  0.165626  1
  O  O21  1  0.638621  0.615161  0.315529  1
  O  O22  1  0.663477  0.082071  0.538112  1
  O  O23  1  0.322736  0.878495  0.477521  1
  O  O24  1  0.977177  0.716215  0.863181  1
  O  O25  1  0.362968  0.378878  0.689638  1
  O  O26  1  0.325938  0.359023  0.943016  1
  O  O27  1  0.313349  0.918540  0.674786  1
  O  O28  1  0.892699  0.306607  0.497044  1
  O  O29  1  0.919232  0.912035  0.165626  1
  O  O30  1  0.663477  0.678227  0.538112  1
  O  O31  1  0.672191  0.117977  0.795927  1
  O  O32  1  0.629718  0.624302  0.810839  1
  O  O33  1  0.939152  0.373140  0.660500  1
  O  O34  1  0.325938  0.929008  0.943016  1
  O  O35  1  0.939152  0.866707  0.660500  1
  O  O36  1  0.976789  0.309790  0.951815  1
  Ti  Ti37  1  0.015283  0.999785  0.005068  1
  Ti  Ti38  1  0.015283  0.474796  0.005068  1
  Ti  Ti39  1  0.026479  0.487273  0.493631  1
  Ti  Ti40  1  0.026479  -0.001015  0.493631  1
  Ti  Ti41  1  0.995738  0.995961  0.756170  1
  Ti  Ti42  1  0.502592  0.992687  0.506017  1
