# generated using pymatgen
data_Ho10Ti6O27
_symmetry_space_group_name_H-M   'P 1'
_cell_length_a   7.44523153
_cell_length_b   7.44523112
_cell_length_c   13.95461571
_cell_angle_alpha   59.51715178
_cell_angle_beta   59.51715249
_cell_angle_gamma   61.41629518
_symmetry_Int_Tables_number   1
_chemical_formula_structural   Ho10Ti6O27
_chemical_formula_sum   'Ho10 Ti6 O27'
_cell_volume   548.42017527
_cell_formula_units_Z   1
loop_
 _symmetry_equiv_pos_site_id
 _symmetry_equiv_pos_as_xyz
  1  'x, y, z'
loop_
 _atom_site_type_symbol
 _atom_site_label
 _atom_site_symmetry_multiplicity
 _atom_site_fract_x
 _atom_site_fract_y
 _atom_site_fract_z
 _atom_site_occupancy
  Ho  Ho0  1  0.992059  0.463681  0.018445  1
  Ho  Ho1  1  0.032031  0.474515  0.246792  1
  Ho  Ho2  1  0.463681  0.992059  0.018445  1
  Ho  Ho3  1  0.990486  0.990486  0.749490  1
  Ho  Ho4  1  0.474515  0.032031  0.246792  1
  Ho  Ho5  1  0.983518  0.498396  0.750891  1
  Ho  Ho6  1  0.489564  0.489564  0.243308  1
  Ho  Ho7  1  0.498396  0.983518  0.750891  1
  Ho  Ho8  1  0.517711  0.517711  0.478743  1
  Ho  Ho9  1  0.500138  0.500138  0.754052  1
  O  O10  1  0.112957  0.112957  0.306468  1
  O  O11  1  0.028267  0.702021  0.064710  1
  O  O12  1  0.046189  0.678984  0.315396  1
  O  O13  1  0.386649  0.386649  0.161203  1
  O  O14  1  0.702021  0.028267  0.064710  1
  O  O15  1  0.171424  0.576203  0.552429  1
  O  O16  1  0.104602  0.104602  0.832389  1
  O  O17  1  0.390525  0.814326  0.229855  1
  O  O18  1  0.316663  0.316663  0.438390  1
  O  O19  1  0.650607  0.650607  0.044180  1
  O  O20  1  0.678984  0.046189  0.315396  1
  O  O21  1  0.315088  0.928465  0.456240  1
  O  O22  1  0.131323  0.601143  0.815499  1
  O  O23  1  0.814326  0.390525  0.229855  1
  O  O24  1  0.576203  0.171424  0.552429  1
  O  O25  1  0.353601  0.906297  0.660184  1
  O  O26  1  0.379103  0.379103  0.970649  1
  O  O27  1  0.626454  0.626454  0.549398  1
  O  O28  1  0.074420  0.074420  0.099894  1
  O  O29  1  0.601143  0.131323  0.815499  1
  O  O30  1  0.928465  0.315088  0.456240  1
  O  O31  1  0.633377  0.633377  0.800335  1
  O  O32  1  0.365460  0.830797  0.953298  1
  O  O33  1  0.906297  0.353601  0.660184  1
  O  O34  1  0.868842  0.868842  0.465994  1
  O  O35  1  0.899637  0.899637  0.656496  1
  O  O36  1  0.830797  0.365460  0.953298  1
  Ti  Ti37  1  0.998354  0.998354  0.003931  1
  Ti  Ti38  1  0.013626  0.013626  0.488719  1
  Ti  Ti39  1  0.008432  0.514999  0.500370  1
  Ti  Ti40  1  0.525055  0.525055  0.983530  1
  Ti  Ti41  1  0.514999  0.008432  0.500370  1
  Ti  Ti42  1  0.979010  0.979010  0.282112  1
