# generated using pymatgen
data_Ho2(Ni5B2)3
_symmetry_space_group_name_H-M   'P 1'
_cell_length_a   9.59560169
_cell_length_b   10.66575987
_cell_length_c   14.23173738
_cell_angle_alpha   90.00000000
_cell_angle_beta   94.49926107
_cell_angle_gamma   90.00000000
_symmetry_Int_Tables_number   1
_chemical_formula_structural   Ho2(Ni5B2)3
_chemical_formula_sum   'Ho12 Ni90 B36'
_cell_volume   1452.04983922
_cell_formula_units_Z   6
loop_
 _symmetry_equiv_pos_site_id
 _symmetry_equiv_pos_as_xyz
  1  'x, y, z'
loop_
 _atom_site_type_symbol
 _atom_site_label
 _atom_site_symmetry_multiplicity
 _atom_site_fract_x
 _atom_site_fract_y
 _atom_site_fract_z
 _atom_site_occupancy
  Ho  Ho0  1  0.339682  0.612739  0.687149  1
  Ho  Ho1  1  0.063910  0.650375  0.361490  1
  Ho  Ho2  1  0.160318  0.112739  0.312851  1
  Ho  Ho3  1  0.563910  0.849625  0.361490  1
  Ho  Ho4  1  0.660318  0.387261  0.312851  1
  Ho  Ho5  1  0.792370  0.625291  0.973762  1
  Ho  Ho6  1  0.292370  0.874709  0.973762  1
  Ho  Ho7  1  0.936090  0.349625  0.638510  1
  Ho  Ho8  1  0.207630  0.374709  0.026238  1
  Ho  Ho9  1  0.839682  0.887261  0.687149  1
  Ho  Ho10  1  0.707630  0.125291  0.026238  1
  Ho  Ho11  1  0.436090  0.150375  0.638510  1
  Ni  Ni12  1  0.434526  0.425980  0.157199  1
  Ni  Ni13  1  0.130637  0.385526  0.338382  1
  Ni  Ni14  1  0.297596  0.278910  0.471297  1
  Ni  Ni15  1  0.932754  0.684048  0.152001  1
  Ni  Ni16  1  0.065474  0.925980  0.842801  1
  Ni  Ni17  1  0.075267  0.565803  0.566929  1
  Ni  Ni18  1  0.036826  0.765921  0.990889  1
  Ni  Ni19  1  0.662262  0.976072  0.185492  1
  Ni  Ni20  1  0.869363  0.614474  0.661618  1
  Ni  Ni21  1  0.202404  0.778910  0.528703  1
  Ni  Ni22  1  0.792998  0.876532  0.031140  1
  Ni  Ni23  1  0.292475  0.533337  0.484226  1
  Ni  Ni24  1  0.174778  0.211414  0.711846  1
  Ni  Ni25  1  0.948019  0.756972  0.536237  1
  Ni  Ni26  1  0.597532  0.740280  0.687031  1
  Ni  Ni27  1  0.442228  0.379796  0.746931  1
  Ni  Ni28  1  0.292998  0.623468  0.031140  1
  Ni  Ni29  1  0.560885  0.207559  0.179290  1
  Ni  Ni30  1  0.270072  0.881581  0.386851  1
  Ni  Ni31  1  0.557772  0.620204  0.253069  1
  Ni  Ni32  1  0.444120  0.042465  0.073674  1
  Ni  Ni33  1  0.770072  0.618419  0.386851  1
  Ni  Ni34  1  0.146797  0.989551  0.690870  1
  Ni  Ni35  1  0.179084  0.750963  0.144078  1
  Ni  Ni36  1  0.551981  0.256972  0.463763  1
  Ni  Ni37  1  0.983204  0.086283  0.572528  1
  Ni  Ni38  1  0.555880  0.957535  0.926326  1
  Ni  Ni39  1  0.963174  0.234079  0.009111  1
  Ni  Ni40  1  0.575267  0.934197  0.566929  1
  Ni  Ni41  1  0.301987  0.485046  0.867565  1
  Ni  Ni42  1  0.424733  0.065803  0.433071  1
  Ni  Ni43  1  0.051981  0.243028  0.463763  1
  Ni  Ni44  1  0.934526  0.074020  0.157199  1
  Ni  Ni45  1  0.729928  0.118419  0.613149  1
  Ni  Ni46  1  0.584191  0.971529  0.750754  1
  Ni  Ni47  1  0.820916  0.249037  0.855922  1
  Ni  Ni48  1  0.924733  0.434197  0.433071  1
  Ni  Ni49  1  0.060885  0.292441  0.179290  1
  Ni  Ni50  1  0.679084  0.749037  0.144078  1
  Ni  Ni51  1  0.707525  0.466663  0.515774  1
  Ni  Ni52  1  0.207525  0.033337  0.515774  1
  Ni  Ni53  1  0.792475  0.966663  0.484226  1
  Ni  Ni54  1  0.207002  0.123468  0.968860  1
  Ni  Ni55  1  0.320916  0.250963  0.855922  1
  Ni  Ni56  1  0.565474  0.574020  0.842801  1
  Ni  Ni57  1  0.448019  0.743028  0.536237  1
  Ni  Ni58  1  0.500000  0.500000  0.000000  1
  Ni  Ni59  1  0.198895  0.701286  0.850219  1
  Ni  Ni60  1  0.337738  0.023928  0.814508  1
  Ni  Ni61  1  0.646797  0.510449  0.690870  1
  Ni  Ni62  1  0.432754  0.815952  0.152001  1
  Ni  Ni63  1  0.162262  0.523928  0.185492  1
  Ni  Ni64  1  0.674778  0.288586  0.711846  1
  Ni  Ni65  1  0.016796  0.913717  0.427472  1
  Ni  Ni66  1  0.229928  0.381581  0.613149  1
  Ni  Ni67  1  0.325222  0.711414  0.288154  1
  Ni  Ni68  1  0.439115  0.792441  0.820710  1
  Ni  Ni69  1  0.837738  0.476072  0.814508  1
  Ni  Ni70  1  0.801987  0.014954  0.867565  1
  Ni  Ni71  1  0.402468  0.259720  0.312969  1
  Ni  Ni72  1  0.057772  0.879796  0.253069  1
  Ni  Ni73  1  0.698895  0.798714  0.850219  1
  Ni  Ni74  1  0.702404  0.721090  0.528703  1
  Ni  Ni75  1  0.944120  0.457535  0.073674  1
  Ni  Ni76  1  0.939115  0.707559  0.820710  1
  Ni  Ni77  1  0.825222  0.788586  0.288154  1
  Ni  Ni78  1  0.353203  0.489551  0.309130  1
  Ni  Ni79  1  0.301105  0.201286  0.149781  1
  Ni  Ni80  1  0.698013  0.514954  0.132435  1
  Ni  Ni81  1  0.902468  0.240280  0.312969  1
  Ni  Ni82  1  0.415809  0.028471  0.249246  1
  Ni  Ni83  1  0.198013  0.985046  0.132435  1
  Ni  Ni84  1  0.483204  0.413717  0.572528  1
  Ni  Ni85  1  0.797596  0.221090  0.471297  1
  Ni  Ni86  1  0.369363  0.885526  0.661618  1
  Ni  Ni87  1  0.084191  0.528471  0.750754  1
  Ni  Ni88  1  0.567246  0.184048  0.847999  1
  Ni  Ni89  1  0.463174  0.265921  0.009111  1
  Ni  Ni90  1  0.000000  0.000000  0.000000  1
  Ni  Ni91  1  0.630637  0.114474  0.338382  1
  Ni  Ni92  1  0.536826  0.734079  0.990889  1
  Ni  Ni93  1  0.067246  0.315952  0.847999  1
  Ni  Ni94  1  0.055880  0.542465  0.926326  1
  Ni  Ni95  1  0.097532  0.759720  0.687031  1
  Ni  Ni96  1  0.915809  0.471529  0.249246  1
  Ni  Ni97  1  0.853203  0.010449  0.309130  1
  Ni  Ni98  1  0.942228  0.120204  0.746931  1
  Ni  Ni99  1  0.707002  0.376532  0.968860  1
  Ni  Ni100  1  0.801105  0.298714  0.149781  1
  Ni  Ni101  1  0.516796  0.586283  0.427472  1
  B  B102  1  0.106903  0.146906  0.096191  1
  B  B103  1  0.491554  0.374025  0.890068  1
  B  B104  1  0.331399  0.696873  0.423510  1
  B  B105  1  0.642552  0.388885  0.823805  1
  B  B106  1  0.991554  0.125975  0.890068  1
  B  B107  1  0.008446  0.874025  0.109932  1
  B  B108  1  0.606903  0.353094  0.096191  1
  B  B109  1  0.857448  0.888885  0.176195  1
  B  B110  1  0.668601  0.303127  0.576490  1
  B  B111  1  0.893097  0.853094  0.903809  1
  B  B112  1  0.219634  0.384266  0.755868  1
  B  B113  1  0.076985  0.604154  0.062983  1
  B  B114  1  0.372171  0.922360  0.518946  1
  B  B115  1  0.576985  0.895846  0.062983  1
  B  B116  1  0.508446  0.625975  0.109932  1
  B  B117  1  0.168601  0.196873  0.576490  1
  B  B118  1  0.256207  0.353260  0.226619  1
  B  B119  1  0.872171  0.577640  0.518946  1
  B  B120  1  0.243793  0.853260  0.773381  1
  B  B121  1  0.357448  0.611115  0.176195  1
  B  B122  1  0.127829  0.422360  0.481054  1
  B  B123  1  0.719634  0.115734  0.755868  1
  B  B124  1  0.831399  0.803127  0.423510  1
  B  B125  1  0.393097  0.646906  0.903809  1
  B  B126  1  0.432150  0.406658  0.425787  1
  B  B127  1  0.142552  0.111115  0.823805  1
  B  B128  1  0.923015  0.395846  0.937017  1
  B  B129  1  0.067850  0.906658  0.574213  1
  B  B130  1  0.932150  0.093342  0.425787  1
  B  B131  1  0.627829  0.077640  0.481054  1
  B  B132  1  0.280366  0.884266  0.244132  1
  B  B133  1  0.567850  0.593342  0.574213  1
  B  B134  1  0.756207  0.146740  0.226619  1
  B  B135  1  0.780366  0.615734  0.244132  1
  B  B136  1  0.423015  0.104154  0.937017  1
  B  B137  1  0.743793  0.646740  0.773381  1
