# generated using pymatgen
data_Ho3ReO8
_symmetry_space_group_name_H-M   'P 1'
_cell_length_a   14.47108703
_cell_length_b   7.25163151
_cell_length_c   6.02754338
_cell_angle_alpha   90.00000000
_cell_angle_beta   90.00000000
_cell_angle_gamma   111.45272063
_symmetry_Int_Tables_number   1
_chemical_formula_structural   Ho3ReO8
_chemical_formula_sum   'Ho12 Re4 O32'
_cell_volume   588.70283196
_cell_formula_units_Z   4
loop_
 _symmetry_equiv_pos_site_id
 _symmetry_equiv_pos_as_xyz
  1  'x, y, z'
loop_
 _atom_site_type_symbol
 _atom_site_label
 _atom_site_symmetry_multiplicity
 _atom_site_fract_x
 _atom_site_fract_y
 _atom_site_fract_z
 _atom_site_occupancy
  Ho  Ho0  1  0.055521  0.340571  0.797833  1
  Ho  Ho1  1  0.201818  0.594137  0.256010  1
  Ho  Ho2  1  0.167763  0.109534  0.306113  1
  Ho  Ho3  1  0.332237  0.890466  0.806113  1
  Ho  Ho4  1  0.298182  0.405863  0.756010  1
  Ho  Ho5  1  0.444479  0.659429  0.297833  1
  Ho  Ho6  1  0.555521  0.340571  0.702167  1
  Ho  Ho7  1  0.701818  0.594137  0.243990  1
  Ho  Ho8  1  0.667763  0.109534  0.193887  1
  Ho  Ho9  1  0.832237  0.890466  0.693887  1
  Ho  Ho10  1  0.798182  0.405863  0.743990  1
  Ho  Ho11  1  0.944479  0.659429  0.202167  1
  Re  Re12  1  0.089919  0.820782  0.754638  1
  Re  Re13  1  0.410081  0.179218  0.254638  1
  Re  Re14  1  0.589919  0.820782  0.745362  1
  Re  Re15  1  0.910081  0.179218  0.245362  1
  O  O16  1  0.018917  0.977868  0.699845  1
  O  O17  1  0.088790  0.874805  0.057463  1
  O  O18  1  0.021021  0.417160  0.193768  1
  O  O19  1  0.095837  0.746390  0.454732  1
  O  O20  1  0.171000  0.665065  0.850262  1
  O  O21  1  0.158185  0.351781  0.526403  1
  O  O22  1  0.172808  0.312508  0.026138  1
  O  O23  1  0.285707  0.966189  0.205213  1
  O  O24  1  0.214293  0.033811  0.705213  1
  O  O25  1  0.327192  0.687492  0.526138  1
  O  O26  1  0.341815  0.648219  0.026403  1
  O  O27  1  0.329000  0.334935  0.350262  1
  O  O28  1  0.518917  0.977868  0.800155  1
  O  O29  1  0.404163  0.253610  0.954732  1
  O  O30  1  0.478979  0.582840  0.693768  1
  O  O31  1  0.411210  0.125195  0.557463  1
  O  O32  1  0.588790  0.874805  0.442537  1
  O  O33  1  0.521021  0.417160  0.306232  1
  O  O34  1  0.595837  0.746390  0.045268  1
  O  O35  1  0.481083  0.022132  0.199845  1
  O  O36  1  0.671000  0.665065  0.649738  1
  O  O37  1  0.658185  0.351781  0.973597  1
  O  O38  1  0.672808  0.312508  0.473862  1
  O  O39  1  0.785707  0.966189  0.294787  1
  O  O40  1  0.714293  0.033811  0.794787  1
  O  O41  1  0.827192  0.687492  0.973862  1
  O  O42  1  0.841815  0.648219  0.473597  1
  O  O43  1  0.829000  0.334935  0.149738  1
  O  O44  1  0.904163  0.253610  0.545268  1
  O  O45  1  0.978979  0.582840  0.806232  1
  O  O46  1  0.911210  0.125195  0.942537  1
  O  O47  1  0.981083  0.022132  0.300155  1
