# generated using pymatgen
data_Ho4Mo4O11
_symmetry_space_group_name_H-M   'P 1'
_cell_length_a   5.71657263
_cell_length_b   10.77527878
_cell_length_c   15.98775979
_cell_angle_alpha   90.00000000
_cell_angle_beta   90.00000000
_cell_angle_gamma   90.00000000
_symmetry_Int_Tables_number   1
_chemical_formula_structural   Ho4Mo4O11
_chemical_formula_sum   'Ho16 Mo16 O44'
_cell_volume   984.80865173
_cell_formula_units_Z   4
loop_
 _symmetry_equiv_pos_site_id
 _symmetry_equiv_pos_as_xyz
  1  'x, y, z'
loop_
 _atom_site_type_symbol
 _atom_site_label
 _atom_site_symmetry_multiplicity
 _atom_site_fract_x
 _atom_site_fract_y
 _atom_site_fract_z
 _atom_site_occupancy
  Ho  Ho0  1  0.000000  0.615513  0.577085  1
  Ho  Ho1  1  0.000000  0.384487  0.422915  1
  Ho  Ho2  1  0.000000  0.115513  0.922915  1
  Ho  Ho3  1  0.000000  0.884487  0.077085  1
  Ho  Ho4  1  0.000000  0.403251  0.736519  1
  Ho  Ho5  1  0.000000  0.596749  0.263481  1
  Ho  Ho6  1  0.000000  0.903251  0.763481  1
  Ho  Ho7  1  0.000000  0.096749  0.236519  1
  Ho  Ho8  1  0.500000  0.423442  0.598812  1
  Ho  Ho9  1  0.500000  0.576558  0.401188  1
  Ho  Ho10  1  0.500000  0.923442  0.901188  1
  Ho  Ho11  1  0.500000  0.076558  0.098812  1
  Ho  Ho12  1  0.500000  0.184486  0.777074  1
  Ho  Ho13  1  0.500000  0.815514  0.222926  1
  Ho  Ho14  1  0.500000  0.684486  0.722926  1
  Ho  Ho15  1  0.500000  0.315514  0.277074  1
  Mo  Mo16  1  0.000000  0.916569  0.560429  1
  Mo  Mo17  1  0.000000  0.083431  0.439571  1
  Mo  Mo18  1  0.000000  0.416569  0.939571  1
  Mo  Mo19  1  0.000000  0.583431  0.060429  1
  Mo  Mo20  1  0.500000  0.903932  0.571103  1
  Mo  Mo21  1  0.500000  0.096068  0.428897  1
  Mo  Mo22  1  0.500000  0.403932  0.928897  1
  Mo  Mo23  1  0.500000  0.596068  0.071103  1
  Mo  Mo24  1  0.275233  0.864170  0.414041  1
  Mo  Mo25  1  0.275233  0.135830  0.585959  1
  Mo  Mo26  1  0.724767  0.364170  0.085959  1
  Mo  Mo27  1  0.724767  0.635830  0.914041  1
  Mo  Mo28  1  0.724767  0.135830  0.585959  1
  Mo  Mo29  1  0.724767  0.864170  0.414041  1
  Mo  Mo30  1  0.275233  0.635830  0.914041  1
  Mo  Mo31  1  0.275233  0.364170  0.085959  1
  O  O32  1  0.245598  0.000000  0.000000  1
  O  O33  1  0.754402  0.500000  0.500000  1
  O  O34  1  0.754402  0.000000  0.000000  1
  O  O35  1  0.245598  0.500000  0.500000  1
  O  O36  1  0.000000  0.231790  0.523024  1
  O  O37  1  0.000000  0.768210  0.476976  1
  O  O38  1  0.000000  0.731790  0.976976  1
  O  O39  1  0.000000  0.268210  0.023024  1
  O  O40  1  0.000000  0.047773  0.654412  1
  O  O41  1  0.000000  0.952227  0.345588  1
  O  O42  1  0.000000  0.547773  0.845588  1
  O  O43  1  0.000000  0.452227  0.154412  1
  O  O44  1  0.500000  0.247705  0.513632  1
  O  O45  1  0.500000  0.752295  0.486368  1
  O  O46  1  0.500000  0.747705  0.986368  1
  O  O47  1  0.500000  0.252295  0.013632  1
  O  O48  1  0.500000  0.040841  0.667064  1
  O  O49  1  0.500000  0.959159  0.332936  1
  O  O50  1  0.762644  0.310305  0.860436  1
  O  O51  1  0.500000  0.540841  0.832936  1
  O  O52  1  0.247318  0.960079  0.172331  1
  O  O53  1  0.247318  0.039921  0.827669  1
  O  O54  1  0.752682  0.460079  0.327669  1
  O  O55  1  0.752682  0.539921  0.672331  1
  O  O56  1  0.752682  0.039921  0.827669  1
  O  O57  1  0.752682  0.960079  0.172331  1
  O  O58  1  0.247318  0.539921  0.672331  1
  O  O59  1  0.247318  0.460079  0.327669  1
  O  O60  1  0.237356  0.689695  0.139564  1
  O  O61  1  0.237356  0.310305  0.860436  1
  O  O62  1  0.762644  0.189695  0.360436  1
  O  O63  1  0.762644  0.810305  0.639564  1
  O  O64  1  0.263946  0.223858  0.174907  1
  O  O65  1  0.263946  0.776142  0.825093  1
  O  O66  1  0.736054  0.723858  0.325093  1
  O  O67  1  0.736054  0.276142  0.674907  1
  O  O68  1  0.736054  0.776142  0.825093  1
  O  O69  1  0.736054  0.223858  0.174907  1
  O  O70  1  0.263946  0.276142  0.674907  1
  O  O71  1  0.263946  0.723858  0.325093  1
  O  O72  1  0.237356  0.189695  0.360436  1
  O  O73  1  0.237356  0.810305  0.639564  1
  O  O74  1  0.762644  0.689695  0.139564  1
  O  O75  1  0.500000  0.459159  0.167064  1
