# generated using pymatgen
data_Ho2(Ni2B)5
_symmetry_space_group_name_H-M   'P 1'
_cell_length_a   8.96260609
_cell_length_b   9.46946597
_cell_length_c   17.56575452
_cell_angle_alpha   90.00000000
_cell_angle_beta   90.00000000
_cell_angle_gamma   90.00000000
_symmetry_Int_Tables_number   1
_chemical_formula_structural   Ho2(Ni2B)5
_chemical_formula_sum   'Ho16 Ni80 B40'
_cell_volume   1490.82479201
_cell_formula_units_Z   8
loop_
 _symmetry_equiv_pos_site_id
 _symmetry_equiv_pos_as_xyz
  1  'x, y, z'
loop_
 _atom_site_type_symbol
 _atom_site_label
 _atom_site_symmetry_multiplicity
 _atom_site_fract_x
 _atom_site_fract_y
 _atom_site_fract_z
 _atom_site_occupancy
  Ho  Ho0  1  0.780496  0.387110  0.020014  1
  Ho  Ho1  1  0.719504  0.612890  0.520014  1
  Ho  Ho2  1  0.623772  0.858850  0.222038  1
  Ho  Ho3  1  0.219504  0.887110  0.479986  1
  Ho  Ho4  1  0.219504  0.612890  0.979986  1
  Ho  Ho5  1  0.780496  0.112890  0.520014  1
  Ho  Ho6  1  0.376228  0.141150  0.777962  1
  Ho  Ho7  1  0.376228  0.358850  0.277962  1
  Ho  Ho8  1  0.876228  0.358850  0.222038  1
  Ho  Ho9  1  0.123772  0.641150  0.777962  1
  Ho  Ho10  1  0.280496  0.112890  0.979986  1
  Ho  Ho11  1  0.876228  0.141150  0.722038  1
  Ho  Ho12  1  0.719504  0.887110  0.020014  1
  Ho  Ho13  1  0.123772  0.858850  0.277962  1
  Ho  Ho14  1  0.280496  0.387110  0.479986  1
  Ho  Ho15  1  0.623772  0.641150  0.722038  1
  Ni  Ni16  1  0.837563  0.281444  0.872356  1
  Ni  Ni17  1  0.378945  0.461458  0.726992  1
  Ni  Ni18  1  0.042432  0.021943  0.596468  1
  Ni  Ni19  1  0.091199  0.146962  0.849602  1
  Ni  Ni20  1  0.419054  0.667044  0.468581  1
  Ni  Ni21  1  0.231145  0.893075  0.865228  1
  Ni  Ni22  1  0.621055  0.961458  0.773008  1
  Ni  Ni23  1  0.378945  0.038542  0.226992  1
  Ni  Ni24  1  0.042432  0.478057  0.096468  1
  Ni  Ni25  1  0.078778  0.613720  0.515375  1
  Ni  Ni26  1  0.626624  0.176201  0.262963  1
  Ni  Ni27  1  0.268855  0.106925  0.365228  1
  Ni  Ni28  1  0.322355  0.494087  0.130700  1
  Ni  Ni29  1  0.677645  0.505913  0.869300  1
  Ni  Ni30  1  0.408801  0.853038  0.349602  1
  Ni  Ni31  1  0.591199  0.146962  0.650398  1
  Ni  Ni32  1  0.080946  0.332956  0.968581  1
  Ni  Ni33  1  0.162437  0.781444  0.627644  1
  Ni  Ni34  1  0.662437  0.718556  0.372356  1
  Ni  Ni35  1  0.768855  0.393075  0.634772  1
  Ni  Ni36  1  0.121055  0.538542  0.226992  1
  Ni  Ni37  1  0.177645  0.505913  0.630700  1
  Ni  Ni38  1  0.662437  0.781444  0.872356  1
  Ni  Ni39  1  0.919054  0.832956  0.531419  1
  Ni  Ni40  1  0.578778  0.886280  0.484625  1
  Ni  Ni41  1  0.956443  0.718469  0.401441  1
  Ni  Ni42  1  0.043557  0.218469  0.098559  1
  Ni  Ni43  1  0.373376  0.823799  0.737037  1
  Ni  Ni44  1  0.231145  0.606925  0.365228  1
  Ni  Ni45  1  0.543557  0.218469  0.401441  1
  Ni  Ni46  1  0.457568  0.978057  0.096468  1
  Ni  Ni47  1  0.456443  0.718469  0.098559  1
  Ni  Ni48  1  0.457568  0.521943  0.596468  1
  Ni  Ni49  1  0.337563  0.281444  0.627644  1
  Ni  Ni50  1  0.408801  0.646962  0.849602  1
  Ni  Ni51  1  0.822355  0.005913  0.869300  1
  Ni  Ni52  1  0.078778  0.886280  0.015375  1
  Ni  Ni53  1  0.873376  0.676201  0.262963  1
  Ni  Ni54  1  0.542432  0.021943  0.903532  1
  Ni  Ni55  1  0.162437  0.718556  0.127644  1
  Ni  Ni56  1  0.121055  0.961458  0.726992  1
  Ni  Ni57  1  0.322355  0.005913  0.630700  1
  Ni  Ni58  1  0.878945  0.038542  0.273008  1
  Ni  Ni59  1  0.919054  0.667044  0.031419  1
  Ni  Ni60  1  0.580946  0.167044  0.031419  1
  Ni  Ni61  1  0.543557  0.281531  0.901441  1
  Ni  Ni62  1  0.126624  0.323799  0.737037  1
  Ni  Ni63  1  0.621055  0.538542  0.273008  1
  Ni  Ni64  1  0.080946  0.167044  0.468581  1
  Ni  Ni65  1  0.768855  0.106925  0.134772  1
  Ni  Ni66  1  0.677645  0.994087  0.369300  1
  Ni  Ni67  1  0.373376  0.676201  0.237037  1
  Ni  Ni68  1  0.956443  0.781531  0.901441  1
  Ni  Ni69  1  0.177645  0.994087  0.130700  1
  Ni  Ni70  1  0.337563  0.218556  0.127644  1
  Ni  Ni71  1  0.921222  0.113720  0.984625  1
  Ni  Ni72  1  0.542432  0.478057  0.403532  1
  Ni  Ni73  1  0.580946  0.332956  0.531419  1
  Ni  Ni74  1  0.908801  0.853038  0.150398  1
  Ni  Ni75  1  0.626624  0.323799  0.762963  1
  Ni  Ni76  1  0.421222  0.386280  0.015375  1
  Ni  Ni77  1  0.731145  0.893075  0.634772  1
  Ni  Ni78  1  0.456443  0.781531  0.598559  1
  Ni  Ni79  1  0.921222  0.386280  0.484625  1
  Ni  Ni80  1  0.873376  0.823799  0.762963  1
  Ni  Ni81  1  0.908801  0.646962  0.650398  1
  Ni  Ni82  1  0.578778  0.613720  0.984625  1
  Ni  Ni83  1  0.091199  0.353038  0.349602  1
  Ni  Ni84  1  0.957568  0.978057  0.403532  1
  Ni  Ni85  1  0.878945  0.461458  0.773008  1
  Ni  Ni86  1  0.822355  0.494087  0.369300  1
  Ni  Ni87  1  0.731145  0.606925  0.134772  1
  Ni  Ni88  1  0.957568  0.521943  0.903532  1
  Ni  Ni89  1  0.421222  0.113720  0.515375  1
  Ni  Ni90  1  0.837563  0.218556  0.372356  1
  Ni  Ni91  1  0.591199  0.353038  0.150398  1
  Ni  Ni92  1  0.043557  0.281531  0.598559  1
  Ni  Ni93  1  0.419054  0.832956  0.968581  1
  Ni  Ni94  1  0.126624  0.176201  0.237037  1
  Ni  Ni95  1  0.268855  0.393075  0.865228  1
  B  B96  1  0.666562  0.350819  0.332942  1
  B  B97  1  0.523241  0.563362  0.176636  1
  B  B98  1  0.046354  0.357646  0.844407  1
  B  B99  1  0.787217  0.852232  0.439050  1
  B  B100  1  0.038665  0.981999  0.918066  1
  B  B101  1  0.976759  0.063362  0.176636  1
  B  B102  1  0.166562  0.350819  0.167058  1
  B  B103  1  0.038665  0.518001  0.418066  1
  B  B104  1  0.546354  0.357646  0.655593  1
  B  B105  1  0.212783  0.352232  0.060950  1
  B  B106  1  0.166562  0.149181  0.667058  1
  B  B107  1  0.787217  0.647768  0.939050  1
  B  B108  1  0.538665  0.981999  0.581934  1
  B  B109  1  0.212783  0.147768  0.560950  1
  B  B110  1  0.666562  0.149181  0.832942  1
  B  B111  1  0.953646  0.857646  0.655593  1
  B  B112  1  0.023241  0.936638  0.823364  1
  B  B113  1  0.833438  0.850819  0.332942  1
  B  B114  1  0.453646  0.857646  0.844407  1
  B  B115  1  0.461335  0.018001  0.418066  1
  B  B116  1  0.712783  0.352232  0.439050  1
  B  B117  1  0.961335  0.481999  0.581934  1
  B  B118  1  0.333438  0.850819  0.167058  1
  B  B119  1  0.953646  0.642354  0.155593  1
  B  B120  1  0.476759  0.063362  0.323364  1
  B  B121  1  0.461335  0.481999  0.918066  1
  B  B122  1  0.287217  0.852232  0.060950  1
  B  B123  1  0.833438  0.649181  0.832942  1
  B  B124  1  0.046354  0.142354  0.344407  1
  B  B125  1  0.546354  0.142354  0.155593  1
  B  B126  1  0.476759  0.436638  0.823364  1
  B  B127  1  0.538665  0.518001  0.081934  1
  B  B128  1  0.523241  0.936638  0.676636  1
  B  B129  1  0.961335  0.018001  0.081934  1
  B  B130  1  0.976759  0.436638  0.676636  1
  B  B131  1  0.453646  0.642354  0.344407  1
  B  B132  1  0.287217  0.647768  0.560950  1
  B  B133  1  0.333438  0.649181  0.667058  1
  B  B134  1  0.023241  0.563362  0.323364  1
  B  B135  1  0.712783  0.147768  0.939050  1
