# generated using pymatgen
data_Ho2TiO5
_symmetry_space_group_name_H-M   'P 1'
_cell_length_a   7.41098218
_cell_length_b   7.27074584
_cell_length_c   21.88836267
_cell_angle_alpha   60.11113991
_cell_angle_beta   59.39959013
_cell_angle_gamma   60.62235284
_symmetry_Int_Tables_number   1
_chemical_formula_structural   Ho2TiO5
_chemical_formula_sum   'Ho16 Ti8 O40'
_cell_volume   834.62232985
_cell_formula_units_Z   8
loop_
 _symmetry_equiv_pos_site_id
 _symmetry_equiv_pos_as_xyz
  1  'x, y, z'
loop_
 _atom_site_type_symbol
 _atom_site_label
 _atom_site_symmetry_multiplicity
 _atom_site_fract_x
 _atom_site_fract_y
 _atom_site_fract_z
 _atom_site_occupancy
  Ho  Ho0  1  0.005356  0.979353  0.178596  1
  Ho  Ho1  1  0.533686  0.986581  0.997763  1
  Ho  Ho2  1  0.496832  0.996197  0.166637  1
  Ho  Ho3  1  0.472775  0.527078  0.991072  1
  Ho  Ho4  1  0.523947  0.977635  0.340193  1
  Ho  Ho5  1  0.496920  0.506983  0.166604  1
  Ho  Ho6  1  0.518595  0.974976  0.504301  1
  Ho  Ho7  1  0.544369  0.488880  0.325891  1
  Ho  Ho8  1  0.001671  0.523102  0.150666  1
  Ho  Ho9  1  0.518416  0.493526  0.504362  1
  Ho  Ho10  1  0.549568  0.996061  0.821926  1
  Ho  Ho11  1  0.019726  0.967689  0.514968  1
  Ho  Ho12  1  0.520890  0.481096  0.672633  1
  Ho  Ho13  1  0.549532  0.488689  0.821954  1
  Ho  Ho14  1  0.985322  0.492100  0.510178  1
  Ho  Ho15  1  0.998967  0.482077  0.845658  1
  O  O16  1  0.091816  0.669808  0.022847  1
  O  O17  1  0.123235  0.156178  0.209587  1
  O  O18  1  0.123392  0.591684  0.209528  1
  O  O19  1  0.602395  0.162819  0.042399  1
  O  O20  1  0.916226  0.826747  0.310012  1
  O  O21  1  0.146726  0.135094  0.547206  1
  O  O22  1  0.305125  0.394910  0.317148  1
  O  O23  1  0.365684  0.884235  0.121950  1
  O  O24  1  0.607750  0.123548  0.215027  1
  O  O25  1  0.602646  0.607733  0.042335  1
  O  O26  1  0.146552  0.576684  0.547247  1
  O  O27  1  0.931097  0.344143  0.102829  1
  O  O28  1  0.625579  0.132792  0.380582  1
  O  O29  1  0.305099  0.848392  0.317118  1
  O  O30  1  0.652437  0.616532  0.204777  1
  O  O31  1  0.032224  0.775583  0.638876  1
  O  O32  1  0.321292  0.334471  0.654137  1
  O  O33  1  0.978498  0.085530  0.906141  1
  O  O34  1  0.372748  0.868509  0.463421  1
  O  O35  1  0.947771  0.286950  0.326103  1
  O  O36  1  0.629674  0.096219  0.559306  1
  O  O37  1  0.931061  0.916200  0.102829  1
  O  O38  1  0.625299  0.599611  0.380680  1
  O  O39  1  0.978722  0.717501  0.906084  1
  O  O40  1  0.662801  0.081676  0.693391  1
  O  O41  1  0.361402  0.377236  0.794691  1
  O  O42  1  0.321513  0.881399  0.654083  1
  O  O43  1  0.934639  0.369307  0.443588  1
  O  O44  1  0.631592  0.607970  0.550825  1
  O  O45  1  0.332065  0.361865  0.956661  1
  O  O46  1  0.315799  0.918272  0.782623  1
  O  O47  1  0.895150  0.320587  0.654546  1
  O  O48  1  0.674961  0.118202  0.862881  1
  O  O49  1  0.934637  0.865395  0.443582  1
  O  O50  1  0.662731  0.675268  0.693428  1
  O  O51  1  0.939298  0.371355  0.772166  1
  O  O52  1  0.332048  0.936167  0.956674  1
  O  O53  1  0.633870  0.625470  0.871773  1
  O  O54  1  0.971604  0.315442  0.965842  1
  O  O55  1  0.939339  0.872901  0.772138  1
  Ti  Ti56  1  0.024910  0.001045  0.999310  1
  Ti  Ti57  1  0.024889  0.476118  0.999311  1
  Ti  Ti58  1  0.500823  0.990936  0.672734  1
  Ti  Ti59  1  0.005999  0.996537  0.335146  1
  Ti  Ti60  1  0.006036  0.491889  0.335186  1
  Ti  Ti61  1  0.024654  -0.003634  0.663582  1
  Ti  Ti62  1  0.024178  0.488362  0.663646  1
  Ti  Ti63  1  0.995442  0.996339  0.837290  1
