# generated using pymatgen
data_HoMn12
_symmetry_space_group_name_H-M   'P 1'
_cell_length_a   4.69457475
_cell_length_b   6.29886326
_cell_length_c   6.29886326
_cell_angle_alpha   82.01754171
_cell_angle_beta   68.12070060
_cell_angle_gamma   68.12070062
_symmetry_Int_Tables_number   1
_chemical_formula_structural   HoMn12
_chemical_formula_sum   'Ho1 Mn12'
_cell_volume   160.39446699
_cell_formula_units_Z   1
loop_
 _symmetry_equiv_pos_site_id
 _symmetry_equiv_pos_as_xyz
  1  'x, y, z'
loop_
 _atom_site_type_symbol
 _atom_site_label
 _atom_site_symmetry_multiplicity
 _atom_site_fract_x
 _atom_site_fract_y
 _atom_site_fract_z
 _atom_site_occupancy
  Mn  Mn0  1  0.728986  0.771014  0.771014  1
  Mn  Mn1  1  0.500000  0.000000  0.500000  1
  Mn  Mn2  1  0.000000  0.500000  0.000000  1
  Mn  Mn3  1  0.500000  0.500000  0.000000  1
  Mn  Mn4  1  0.000000  0.000000  0.500000  1
  Mn  Mn5  1  0.365036  0.634964  0.634964  1
  Mn  Mn6  1  0.000000  0.365036  0.634964  1
  Mn  Mn7  1  0.000000  0.634964  0.365036  1
  Mn  Mn8  1  0.634964  0.365036  0.365036  1
  Mn  Mn9  1  0.271014  0.228986  0.228986  1
  Mn  Mn10  1  0.500000  0.771014  0.228986  1
  Mn  Mn11  1  0.500000  0.228986  0.771014  1
  Ho  Ho12  1  0.000000  0.000000  0.000000  1
