# generated using pymatgen
data_Ho10Ti6O27
_symmetry_space_group_name_H-M   'P 1'
_cell_length_a   7.24163468
_cell_length_b   7.28482684
_cell_length_c   29.84467160
_cell_angle_alpha   60.77879016
_cell_angle_beta   59.91198899
_cell_angle_gamma   59.80250542
_symmetry_Int_Tables_number   1
_chemical_formula_structural   Ho10Ti6O27
_chemical_formula_sum   'Ho20 Ti12 O54'
_cell_volume   1117.23938194
_cell_formula_units_Z   2
loop_
 _symmetry_equiv_pos_site_id
 _symmetry_equiv_pos_as_xyz
  1  'x, y, z'
loop_
 _atom_site_type_symbol
 _atom_site_label
 _atom_site_symmetry_multiplicity
 _atom_site_fract_x
 _atom_site_fract_y
 _atom_site_fract_z
 _atom_site_occupancy
  Ho  Ho0  1  0.993957  0.009589  0.246114  1
  Ho  Ho1  1  0.507658  0.998153  0.999009  1
  Ho  Ho2  1  0.516844  0.985910  0.118907  1
  Ho  Ho3  1  0.501721  0.518576  0.990282  1
  Ho  Ho4  1  0.993957  0.511999  0.246114  1
  Ho  Ho5  1  0.500961  -0.015529  0.257525  1
  Ho  Ho6  1  0.976776  0.486870  0.387371  1
  Ho  Ho7  1  0.516844  0.521619  0.118907  1
  Ho  Ho8  1  0.475787  0.985599  0.383325  1
  Ho  Ho9  1  0.503742  0.504620  0.246754  1
  Ho  Ho10  1  0.475787  0.505315  0.383325  1
  Ho  Ho11  1  0.996366  0.490827  0.630495  1
  Ho  Ho12  1  0.485994  0.004103  0.627468  1
  Ho  Ho13  1  0.482699  0.501461  0.503595  1
  Ho  Ho14  1  -0.001165  0.506952  0.871815  1
  Ho  Ho15  1  0.485994  0.500030  0.627468  1
  Ho  Ho16  1  0.500730  0.005477  0.747079  1
  Ho  Ho17  1  0.530245  0.016399  0.863165  1
  Ho  Ho18  1  0.467140  0.516276  0.750077  1
  Ho  Ho19  1  0.530245  0.500696  0.863165  1
  O  O20  1  0.158749  0.198245  0.142492  1
  O  O21  1  0.617581  0.152645  0.029895  1
  O  O22  1  0.158749  0.573038  0.142492  1
  O  O23  1  0.075774  0.081968  0.418637  1
  O  O24  1  0.330143  0.895220  0.094854  1
  O  O25  1  0.377568  0.357355  0.216067  1
  O  O26  1  0.893312  0.886529  0.208407  1
  O  O27  1  0.617581  0.610193  0.029895  1
  O  O28  1  0.870198  0.291545  0.102614  1
  O  O29  1  0.653571  0.619124  0.152045  1
  O  O30  1  0.377568  0.900809  0.216067  1
  O  O31  1  0.610210  0.131841  0.292842  1
  O  O32  1  0.075774  0.667709  0.418637  1
  O  O33  1  0.092675  0.119617  0.656087  1
  O  O34  1  0.089567  0.676311  0.514453  1
  O  O35  1  0.335075  0.322686  0.478402  1
  O  O36  1  0.335039  0.893833  0.344324  1
  O  O37  1  0.870198  0.927801  0.102614  1
  O  O38  1  0.610210  0.586579  0.292842  1
  O  O39  1  0.876682  0.373453  0.219103  1
  O  O40  1  0.697585  0.122468  0.389370  1
  O  O41  1  0.031119  0.379921  0.323367  1
  O  O42  1  0.616530  0.623167  0.409284  1
  O  O43  1  0.335075  0.928632  0.478402  1
  O  O44  1  0.674050  0.076933  0.516172  1
  O  O45  1  0.092675  0.663361  0.656087  1
  O  O46  1  0.377335  0.382765  0.589284  1
  O  O47  1  0.321957  0.922756  0.583133  1
  O  O48  1  0.323233  0.382461  0.720911  1
  O  O49  1  0.034534  0.112086  0.915295  1
  O  O50  1  0.075765  0.652755  0.779681  1
  O  O51  1  0.648560  0.118009  0.653856  1
  O  O52  1  0.915339  0.328659  0.481836  1
  O  O53  1  0.674050  0.684327  0.516172  1
  O  O54  1  0.031119  0.795492  0.323367  1
  O  O55  1  0.921751  0.332631  0.579706  1
  O  O56  1  0.624522  0.630378  0.653680  1
  O  O57  1  0.323233  0.910660  0.720911  1
  O  O58  1  0.034534  0.692199  0.915295  1
  O  O59  1  0.648071  0.130863  0.773864  1
  O  O60  1  0.361663  0.379684  0.844742  1
  O  O61  1  0.273006  0.376303  0.988833  1
  O  O62  1  0.321596  0.912571  0.838316  1
  O  O63  1  0.645860  0.108592  0.909239  1
  O  O64  1  0.959594  0.325008  0.722597  1
  O  O65  1  0.921751  0.926793  0.579706  1
  O  O66  1  0.648071  0.625610  0.773864  1
  O  O67  1  0.619507  0.635234  0.902506  1
  O  O68  1  0.927049  0.332912  0.826364  1
  O  O69  1  0.273006  0.895358  0.988833  1
  O  O70  1  0.884797  0.876406  0.715598  1
  O  O71  1  0.915202  0.347068  0.972665  1
  O  O72  1  0.927049  0.934582  0.826364  1
  O  O73  1  0.894380  0.780503  0.011153  1
  Ti  Ti74  1  0.979008  0.035075  0.987317  1
  Ti  Ti75  1  0.979008  0.536648  0.987317  1
  Ti  Ti76  1  0.978109  0.478552  0.141197  1
  Ti  Ti77  1  0.987786  0.993456  0.507827  1
  Ti  Ti78  1  0.007840  -0.004729  0.125405  1
  Ti  Ti79  1  0.973403  0.993074  0.635112  1
  Ti  Ti80  1  0.987786  0.487451  0.507827  1
  Ti  Ti81  1  0.473064  0.991468  0.511000  1
  Ti  Ti82  1  0.014439  0.975939  0.383420  1
  Ti  Ti83  1  0.991690  1.001413  0.742293  1
  Ti  Ti84  1  0.995905  0.023536  0.864256  1
  Ti  Ti85  1  0.991690  0.537723  0.742293  1
