# generated using pymatgen
data_Ho12Co7
_symmetry_space_group_name_H-M   'P 1'
_cell_length_a   8.24068620
_cell_length_b   9.18148480
_cell_length_c   11.14863875
_cell_angle_alpha   90.00000000
_cell_angle_beta   90.00000000
_cell_angle_gamma   102.09606883
_symmetry_Int_Tables_number   1
_chemical_formula_structural   Ho12Co7
_chemical_formula_sum   'Ho24 Co14'
_cell_volume   824.79707930
_cell_formula_units_Z   2
loop_
 _symmetry_equiv_pos_site_id
 _symmetry_equiv_pos_as_xyz
  1  'x, y, z'
loop_
 _atom_site_type_symbol
 _atom_site_label
 _atom_site_symmetry_multiplicity
 _atom_site_fract_x
 _atom_site_fract_y
 _atom_site_fract_z
 _atom_site_occupancy
  Co  Co0  1  0.000000  0.500000  0.500000  1
  Co  Co1  1  0.500000  0.000000  0.000000  1
  Co  Co2  1  0.061601  0.970411  0.326007  1
  Co  Co3  1  0.438399  0.529589  0.826007  1
  Co  Co4  1  0.938399  0.029589  0.673993  1
  Co  Co5  1  0.561601  0.470411  0.173993  1
  Co  Co6  1  0.406784  0.900242  0.598719  1
  Co  Co7  1  0.093216  0.599758  0.098719  1
  Co  Co8  1  0.593216  0.099758  0.401281  1
  Co  Co9  1  0.906784  0.400242  0.901281  1
  Co  Co10  1  0.059209  0.157337  0.189029  1
  Co  Co11  1  0.440791  0.342663  0.689029  1
  Co  Co12  1  0.940791  0.842663  0.810971  1
  Co  Co13  1  0.559209  0.657337  0.310971  1
  Ho  Ho14  1  0.226986  0.461835  0.294738  1
  Ho  Ho15  1  0.273014  0.038165  0.794738  1
  Ho  Ho16  1  0.839954  0.341807  0.158464  1
  Ho  Ho17  1  0.660046  0.158193  0.658464  1
  Ho  Ho18  1  0.160046  0.658193  0.841536  1
  Ho  Ho19  1  0.339954  0.841807  0.341536  1
  Ho  Ho20  1  0.800278  0.645710  0.995675  1
  Ho  Ho21  1  0.699722  0.854290  0.495675  1
  Ho  Ho22  1  0.199722  0.354290  0.004325  1
  Ho  Ho23  1  0.300278  0.145710  0.504325  1
  Ho  Ho24  1  0.726986  0.961835  0.205262  1
  Ho  Ho25  1  0.773014  0.538165  0.705262  1
  Ho  Ho26  1  0.143801  0.913588  0.071964  1
  Ho  Ho27  1  0.356199  0.586412  0.571964  1
  Ho  Ho28  1  0.856199  0.086412  0.928036  1
  Ho  Ho29  1  0.643801  0.413588  0.428036  1
  Ho  Ho30  1  0.075284  0.324632  0.699270  1
  Ho  Ho31  1  0.424716  0.175368  0.199270  1
  Ho  Ho32  1  0.924716  0.675368  0.300730  1
  Ho  Ho33  1  0.575284  0.824632  0.800730  1
  Ho  Ho34  1  0.427890  0.694601  0.070399  1
  Ho  Ho35  1  0.072110  0.805399  0.570399  1
  Ho  Ho36  1  0.572110  0.305399  0.929601  1
  Ho  Ho37  1  0.927890  0.194601  0.429601  1
