# generated using pymatgen
data_HoCrO4
_symmetry_space_group_name_H-M   'P 1'
_cell_length_a   5.04048566
_cell_length_b   5.04048567
_cell_length_c   6.68862553
_cell_angle_alpha   112.13531847
_cell_angle_beta   112.13531854
_cell_angle_gamma   90.00000004
_symmetry_Int_Tables_number   1
_chemical_formula_structural   HoCrO4
_chemical_formula_sum   'Ho2 Cr2 O8'
_cell_volume   143.79821507
_cell_formula_units_Z   2
loop_
 _symmetry_equiv_pos_site_id
 _symmetry_equiv_pos_as_xyz
  1  'x, y, z'
loop_
 _atom_site_type_symbol
 _atom_site_label
 _atom_site_symmetry_multiplicity
 _atom_site_fract_x
 _atom_site_fract_y
 _atom_site_fract_z
 _atom_site_occupancy
  O  O0  1  0.943090  0.287622  0.594526  1
  O  O1  1  0.306905  0.443090  0.094526  1
  O  O2  1  0.787622  0.151437  0.094526  1
  O  O3  1  0.651437  0.806905  0.594526  1
  O  O4  1  0.348563  0.193095  0.405474  1
  O  O5  1  0.212378  0.848563  0.905474  1
  O  O6  1  0.693095  0.556910  0.905474  1
  O  O7  1  0.056910  0.712378  0.405474  1
  Cr  Cr8  1  0.875000  0.625000  0.750000  1
  Cr  Cr9  1  0.125000  0.375000  0.250000  1
  Ho  Ho10  1  0.375000  0.125000  0.750000  1
  Ho  Ho11  1  0.625000  0.875000  0.250000  1
