# generated using pymatgen
data_HoCrO4
_symmetry_space_group_name_H-M   'P 1'
_cell_length_a   5.97027478
_cell_length_b   5.97027478
_cell_length_c   5.97027478
_cell_angle_alpha   106.01892138
_cell_angle_beta   106.01892131
_cell_angle_gamma   116.62123337
_symmetry_Int_Tables_number   1
_chemical_formula_structural   HoCrO4
_chemical_formula_sum   'Ho2 Cr2 O8'
_cell_volume   161.88164452
_cell_formula_units_Z   2
loop_
 _symmetry_equiv_pos_site_id
 _symmetry_equiv_pos_as_xyz
  1  'x, y, z'
loop_
 _atom_site_type_symbol
 _atom_site_label
 _atom_site_symmetry_multiplicity
 _atom_site_fract_x
 _atom_site_fract_y
 _atom_site_fract_z
 _atom_site_occupancy
  O  O0  1  0.800446  0.735048  0.434603  1
  O  O1  1  0.365843  0.800446  0.565397  1
  O  O2  1  0.735048  0.800446  0.934603  1
  O  O3  1  0.800446  0.365843  0.065397  1
  O  O4  1  0.634157  0.199554  0.434603  1
  O  O5  1  0.199554  0.264952  0.565397  1
  O  O6  1  0.199554  0.634157  0.934603  1
  O  O7  1  0.264952  0.199554  0.065397  1
  Cr  Cr8  1  0.375000  0.625000  0.750000  1
  Cr  Cr9  1  0.625000  0.375000  0.250000  1
  Ho  Ho10  1  0.125000  0.875000  0.250000  1
  Ho  Ho11  1  0.875000  0.125000  0.750000  1
