# generated using pymatgen
data_Ho(CuO2)2
_symmetry_space_group_name_H-M   'P 1'
_cell_length_a   5.67375878
_cell_length_b   5.67363207
_cell_length_c   6.26001823
_cell_angle_alpha   116.90684534
_cell_angle_beta   116.90749659
_cell_angle_gamma   90.07875816
_symmetry_Int_Tables_number   1
_chemical_formula_structural   Ho(CuO2)2
_chemical_formula_sum   'Ho2 Cu4 O8'
_cell_volume   154.76554505
_cell_formula_units_Z   2
loop_
 _symmetry_equiv_pos_site_id
 _symmetry_equiv_pos_as_xyz
  1  'x, y, z'
loop_
 _atom_site_type_symbol
 _atom_site_label
 _atom_site_symmetry_multiplicity
 _atom_site_fract_x
 _atom_site_fract_y
 _atom_site_fract_z
 _atom_site_occupancy
  O  O0  1  0.721187  0.529107  0.855071  1
  O  O1  1  0.133883  0.825964  0.855071  1
  O  O2  1  0.278813  0.470893  0.144929  1
  O  O3  1  0.866117  0.174036  0.144929  1
  O  O4  1  0.529541  0.134045  0.354980  1
  O  O5  1  0.825440  0.720936  0.354980  1
  O  O6  1  0.174560  0.279064  0.645020  1
  O  O7  1  0.470459  0.865955  0.645020  1
  Cu  Cu8  1  0.500000  0.000000  0.000000  1
  Cu  Cu9  1  0.500000  0.500000  0.000000  1
  Cu  Cu10  1  0.000000  0.500000  0.500000  1
  Cu  Cu11  1  0.500000  0.500000  0.500000  1
  Ho  Ho12  1  0.874992  0.124992  0.749984  1
  Ho  Ho13  1  0.125008  0.875008  0.250016  1
