# generated using pymatgen
data_HoHg3
_symmetry_space_group_name_H-M   'P 1'
_cell_length_a   5.02069359
_cell_length_b   6.64241212
_cell_length_c   6.64241212
_cell_angle_alpha   120.01240678
_cell_angle_beta   90.00000000
_cell_angle_gamma   90.00000000
_symmetry_Int_Tables_number   1
_chemical_formula_structural   HoHg3
_chemical_formula_sum   'Ho2 Hg6'
_cell_volume   191.81902324
_cell_formula_units_Z   2
loop_
 _symmetry_equiv_pos_site_id
 _symmetry_equiv_pos_as_xyz
  1  'x, y, z'
loop_
 _atom_site_type_symbol
 _atom_site_label
 _atom_site_symmetry_multiplicity
 _atom_site_fract_x
 _atom_site_fract_y
 _atom_site_fract_z
 _atom_site_occupancy
  Ho  Ho0  1  0.750000  0.666685  0.333315  1
  Ho  Ho1  1  0.250000  0.333315  0.666685  1
  Hg  Hg2  1  0.750000  0.166697  0.333399  1
  Hg  Hg3  1  0.750000  0.166699  0.833301  1
  Hg  Hg4  1  0.750000  0.666601  0.833303  1
  Hg  Hg5  1  0.250000  0.833303  0.666601  1
  Hg  Hg6  1  0.250000  0.833301  0.166699  1
  Hg  Hg7  1  0.250000  0.333399  0.166697  1
