# generated using pymatgen
data_Ho(NiB)2
_symmetry_space_group_name_H-M   'P 1'
_cell_length_a   4.94197067
_cell_length_b   4.94197067
_cell_length_c   6.07609031
_cell_angle_alpha   102.56638971
_cell_angle_beta   103.85554055
_cell_angle_gamma   115.98070295
_symmetry_Int_Tables_number   1
_chemical_formula_structural   Ho(NiB)2
_chemical_formula_sum   'Ho2 Ni4 B4'
_cell_volume   120.35354235
_cell_formula_units_Z   2
loop_
 _symmetry_equiv_pos_site_id
 _symmetry_equiv_pos_as_xyz
  1  'x, y, z'
loop_
 _atom_site_type_symbol
 _atom_site_label
 _atom_site_symmetry_multiplicity
 _atom_site_fract_x
 _atom_site_fract_y
 _atom_site_fract_z
 _atom_site_occupancy
  B  B0  1  0.971596  0.155166  0.476744  1
  B  B1  1  0.178422  0.494852  0.023256  1
  B  B2  1  0.028404  0.844834  0.523256  1
  B  B3  1  0.821578  0.505148  0.976744  1
  Ni  Ni4  1  0.667186  0.721771  0.199930  1
  Ni  Ni5  1  0.021841  0.467256  0.300070  1
  Ni  Ni6  1  0.978159  0.532744  0.699930  1
  Ni  Ni7  1  0.332814  0.278229  0.800070  1
  Ho  Ho8  1  0.367528  0.117528  0.250000  1
  Ho  Ho9  1  0.632472  0.882472  0.750000  1
