# generated using pymatgen
data_HoTa7O19
_symmetry_space_group_name_H-M   'P 1'
_cell_length_a   6.26360321
_cell_length_b   6.26361665
_cell_length_c   20.09300389
_cell_angle_alpha   89.99995105
_cell_angle_beta   89.99983764
_cell_angle_gamma   120.00012994
_symmetry_Int_Tables_number   1
_chemical_formula_structural   HoTa7O19
_chemical_formula_sum   'Ho2 Ta14 O38'
_cell_volume   682.69125412
_cell_formula_units_Z   2
loop_
 _symmetry_equiv_pos_site_id
 _symmetry_equiv_pos_as_xyz
  1  'x, y, z'
loop_
 _atom_site_type_symbol
 _atom_site_label
 _atom_site_symmetry_multiplicity
 _atom_site_fract_x
 _atom_site_fract_y
 _atom_site_fract_z
 _atom_site_occupancy
  Ho  Ho0  1  0.333335  0.666693  0.000002  1
  Ho  Ho1  1  0.333325  0.666645  0.499998  1
  Ta  Ta2  1  0.360360  0.360411  0.155377  1
  Ta  Ta3  1  0.360360  0.360410  0.344621  1
  Ta  Ta4  1  0.639593  0.639649  0.655378  1
  Ta  Ta5  1  0.639592  0.639639  0.844623  1
  Ta  Ta6  1  0.360367  -0.000052  0.844618  1
  Ta  Ta7  1  0.360362  -0.000047  0.655375  1
  Ta  Ta8  1  0.666657  0.333338  0.499999  1
  Ta  Ta9  1  0.666674  0.333334  0.999999  1
  Ta  Ta10  1  0.639590  -0.000051  0.155381  1
  Ta  Ta11  1  0.639594  -0.000044  0.344625  1
  Ta  Ta12  1  0.000049  0.639642  0.155381  1
  Ta  Ta13  1  0.000049  0.639641  0.344623  1
  Ta  Ta14  1  0.000052  0.360406  0.844620  1
  Ta  Ta15  1  0.000046  0.360406  0.655377  1
  O  O16  1  0.999691  0.752530  0.653225  1
  O  O17  1  0.999691  0.752530  0.846776  1
  O  O18  1  0.042613  0.626452  0.249999  1
  O  O19  1  0.247472  0.000315  0.346776  1
  O  O20  1  0.247471  0.000311  0.153226  1
  O  O21  1  0.042613  0.416156  0.750002  1
  O  O22  1  0.999692  0.247157  0.153224  1
  O  O23  1  0.999687  0.247170  0.346776  1
  O  O24  1  0.373555  0.957393  0.749999  1
  O  O25  1  0.333331  0.666666  0.130718  1
  O  O26  1  0.333334  0.666667  0.869281  1
  O  O27  1  0.333334  0.666664  0.630720  1
  O  O28  1  0.333339  0.666671  0.369279  1
  O  O29  1  0.583842  0.957386  0.249999  1
  O  O30  1  0.247474  0.247159  0.653226  1
  O  O31  1  0.247474  0.247159  0.846774  1
  O  O32  1  0.373551  0.416159  0.249998  1
  O  O33  1  0.427576  0.384099  0.055430  1
  O  O34  1  0.427561  0.384094  0.444573  1
  O  O35  1  0.752825  0.000308  0.846774  1
  O  O36  1  0.752828  0.000315  0.653224  1
  O  O37  1  0.583840  0.626456  0.750002  1
  O  O38  1  0.615899  0.572430  0.944570  1
  O  O39  1  0.615905  0.572435  0.555431  1
  O  O40  1  0.752825  0.752510  0.153225  1
  O  O41  1  0.752842  0.752525  0.346774  1
  O  O42  1  0.427572  0.043470  0.555431  1
  O  O43  1  0.427566  0.043466  0.944571  1
  O  O44  1  0.666667  0.333332  0.333659  1
  O  O45  1  0.666669  0.333334  0.833659  1
  O  O46  1  0.666670  0.333338  0.666340  1
  O  O47  1  0.666665  0.333328  0.166341  1
  O  O48  1  0.615909  0.043474  0.055429  1
  O  O49  1  0.615896  0.043469  0.444570  1
  O  O50  1  0.956532  0.572435  0.055428  1
  O  O51  1  0.956531  0.572424  0.444570  1
  O  O52  1  0.956533  0.384094  0.555431  1
  O  O53  1  0.956526  0.384092  0.944571  1
