# generated using pymatgen
data_HoTaO4
_symmetry_space_group_name_H-M   'P 1'
_cell_length_a   5.09102724
_cell_length_b   5.34291818
_cell_length_c   6.53921518
_cell_angle_alpha   111.80769559
_cell_angle_beta   110.51178549
_cell_angle_gamma   95.45958706
_symmetry_Int_Tables_number   1
_chemical_formula_structural   HoTaO4
_chemical_formula_sum   'Ho2 Ta2 O8'
_cell_volume   149.39102272
_cell_formula_units_Z   2
loop_
 _symmetry_equiv_pos_site_id
 _symmetry_equiv_pos_as_xyz
  1  'x, y, z'
loop_
 _atom_site_type_symbol
 _atom_site_label
 _atom_site_symmetry_multiplicity
 _atom_site_fract_x
 _atom_site_fract_y
 _atom_site_fract_z
 _atom_site_occupancy
  O  O0  1  0.000624  0.786581  0.063203  1
  O  O1  1  0.562580  0.276622  0.063203  1
  O  O2  1  0.999376  0.213419  0.936797  1
  O  O3  1  0.437420  0.723378  0.936797  1
  O  O4  1  0.208641  0.367712  0.419460  1
  O  O5  1  0.710819  0.051748  0.419460  1
  O  O6  1  0.791359  0.632288  0.580540  1
  O  O7  1  0.289181  0.948252  0.580540  1
  Ho  Ho8  1  0.381450  0.631450  0.262899  1
  Ho  Ho9  1  0.618550  0.368550  0.737101  1
  Ta  Ta10  1  0.851850  0.101850  0.203699  1
  Ta  Ta11  1  0.148150  0.898150  0.796301  1
