# generated using pymatgen
data_HoVO4
_symmetry_space_group_name_H-M   'P 1'
_cell_length_a   5.98177284
_cell_length_b   5.98177284
_cell_length_c   5.98177284
_cell_angle_alpha   106.30846470
_cell_angle_beta   106.30846470
_cell_angle_gamma   116.00075504
_symmetry_Int_Tables_number   1
_chemical_formula_structural   HoVO4
_chemical_formula_sum   'Ho2 V2 O8'
_cell_volume   163.14336573
_cell_formula_units_Z   2
loop_
 _symmetry_equiv_pos_site_id
 _symmetry_equiv_pos_as_xyz
  1  'x, y, z'
loop_
 _atom_site_type_symbol
 _atom_site_label
 _atom_site_symmetry_multiplicity
 _atom_site_fract_x
 _atom_site_fract_y
 _atom_site_fract_z
 _atom_site_occupancy
  Ho  Ho0  1  0.875000  0.125000  0.250000  1
  Ho  Ho1  1  0.125000  0.875000  0.750000  1
  V  V2  1  0.625000  0.375000  0.750000  1
  V  V3  1  0.375000  0.625000  0.250000  1
  O  O4  1  0.262927  0.198197  0.564730  1
  O  O5  1  0.198197  0.262927  0.064730  1
  O  O6  1  0.198197  0.633468  0.435270  1
  O  O7  1  0.633468  0.198197  0.935270  1
  O  O8  1  0.737073  0.801803  0.435270  1
  O  O9  1  0.801803  0.737073  0.935270  1
  O  O10  1  0.801803  0.366532  0.564730  1
  O  O11  1  0.366532  0.801803  0.064730  1
