# generated using pymatgen
data_HoZn2
_symmetry_space_group_name_H-M   'P 1'
_cell_length_a   4.45799239
_cell_length_b   5.64511173
_cell_length_c   5.64511173
_cell_angle_alpha   77.52278402
_cell_angle_beta   66.74311762
_cell_angle_gamma   66.74311759
_symmetry_Int_Tables_number   1
_chemical_formula_structural   HoZn2
_chemical_formula_sum   'Ho2 Zn4'
_cell_volume   119.61015813
_cell_formula_units_Z   2
loop_
 _symmetry_equiv_pos_site_id
 _symmetry_equiv_pos_as_xyz
  1  'x, y, z'
loop_
 _atom_site_type_symbol
 _atom_site_label
 _atom_site_symmetry_multiplicity
 _atom_site_fract_x
 _atom_site_fract_y
 _atom_site_fract_z
 _atom_site_occupancy
  Zn  Zn0  1  0.834079  0.706619  0.625223  1
  Zn  Zn1  1  0.165921  0.293381  0.374777  1
  Zn  Zn2  1  0.834079  0.125223  0.206619  1
  Zn  Zn3  1  0.165921  0.874777  0.793381  1
  Ho  Ho4  1  0.527918  0.722082  0.222082  1
  Ho  Ho5  1  0.472082  0.277918  0.777918  1
