# generated using pymatgen
data_HoFe3
_symmetry_space_group_name_H-M   'P 1'
_cell_length_a   8.61411265
_cell_length_b   8.61411275
_cell_length_c   8.61411217
_cell_angle_alpha   34.32425009
_cell_angle_beta   34.32424909
_cell_angle_gamma   34.32424946
_symmetry_Int_Tables_number   1
_chemical_formula_structural   HoFe3
_chemical_formula_sum   'Ho3 Fe9'
_cell_volume   181.25694409
_cell_formula_units_Z   3
loop_
 _symmetry_equiv_pos_site_id
 _symmetry_equiv_pos_as_xyz
  1  'x, y, z'
loop_
 _atom_site_type_symbol
 _atom_site_label
 _atom_site_symmetry_multiplicity
 _atom_site_fract_x
 _atom_site_fract_y
 _atom_site_fract_z
 _atom_site_occupancy
  Fe  Fe0  1  0.500000  0.500000  0.500000  1
  Fe  Fe1  1  0.332763  0.332763  0.332763  1
  Fe  Fe2  1  0.667237  0.667237  0.667237  1
  Fe  Fe3  1  0.581029  0.081974  0.581029  1
  Fe  Fe4  1  0.581029  0.581029  0.081974  1
  Fe  Fe5  1  0.081974  0.581029  0.581029  1
  Fe  Fe6  1  0.918026  0.418971  0.418971  1
  Fe  Fe7  1  0.418971  0.918026  0.418971  1
  Fe  Fe8  1  0.418971  0.418971  0.918026  1
  Ho  Ho9  1  0.000000  0.000000  0.000000  1
  Ho  Ho10  1  0.141895  0.141895  0.141895  1
  Ho  Ho11  1  0.858105  0.858105  0.858105  1
