# generated using pymatgen
data_CeZr11O24
_symmetry_space_group_name_H-M   'P 1'
_cell_length_a   9.74339878
_cell_length_b   7.48261073
_cell_length_c   6.90092474
_cell_angle_alpha   63.68628090
_cell_angle_beta   91.55057832
_cell_angle_gamma   86.52760183
_symmetry_Int_Tables_number   1
_chemical_formula_structural   CeZr11O24
_chemical_formula_sum   'Ce1 Zr11 O24'
_cell_volume   449.34040199
_cell_formula_units_Z   1
loop_
 _symmetry_equiv_pos_site_id
 _symmetry_equiv_pos_as_xyz
  1  'x, y, z'
loop_
 _atom_site_type_symbol
 _atom_site_label
 _atom_site_symmetry_multiplicity
 _atom_site_fract_x
 _atom_site_fract_y
 _atom_site_fract_z
 _atom_site_occupancy
  Ce  Ce0  1  0.632505  0.168684  0.926794  1
  Zr  Zr1  1  0.013348  0.049265  0.220976  1
  Zr  Zr2  1  0.322588  0.282136  0.116988  1
  Zr  Zr3  1  0.037102  0.491905  0.746368  1
  Zr  Zr4  1  0.339193  0.385356  0.549015  1
  Zr  Zr5  1  0.706334  0.160988  0.416504  1
  Zr  Zr6  1  0.367782  0.823699  0.080029  1
  Zr  Zr7  1  0.297855  0.839333  0.588430  1
  Zr  Zr8  1  0.659120  0.616567  0.446857  1
  Zr  Zr9  1  0.963573  0.507316  0.253384  1
  Zr  Zr10  1  0.675533  0.717370  0.879916  1
  Zr  Zr11  1  0.994296  0.947772  0.783013  1
  O  O12  1  0.091132  0.346406  0.111782  1
  O  O13  1  0.315081  0.146913  0.469632  1
  O  O14  1  0.014274  0.186338  0.865551  1
  O  O15  1  0.534204  0.213191  0.195578  1
  O  O16  1  0.129096  0.459664  0.478485  1
  O  O17  1  0.344970  0.520586  0.196355  1
  O  O18  1  0.802652  0.125426  0.157823  1
  O  O19  1  0.072563  0.828037  0.551055  1
  O  O20  1  0.394697  0.162009  0.884366  1
  O  O21  1  0.574741  0.326213  0.542792  1
  O  O22  1  0.243074  0.984478  0.224637  1
  O  O23  1  0.260843  0.506865  0.782578  1
  O  O24  1  0.741766  0.495647  0.214708  1
  O  O25  1  0.421808  0.680311  0.444764  1
  O  O26  1  0.761947  0.006113  0.769893  1
  O  O27  1  0.592217  0.826762  0.117554  1
  O  O28  1  0.932984  0.173188  0.452996  1
  O  O29  1  0.203856  0.872329  0.856064  1
  O  O30  1  0.650530  0.491101  0.794445  1
  O  O31  1  0.869935  0.540511  0.522191  1
  O  O32  1  0.463244  0.794972  0.810418  1
  O  O33  1  0.983807  0.814162  0.135843  1
  O  O34  1  0.679189  0.857173  0.523666  1
  O  O35  1  0.912163  0.651217  0.888556  1
