# generated using pymatgen
data_Ho3Ni19B10
_symmetry_space_group_name_H-M   'P 1'
_cell_length_a   5.75822781
_cell_length_b   7.88377616
_cell_length_c   7.88377617
_cell_angle_alpha   66.90997188
_cell_angle_beta   88.84982880
_cell_angle_gamma   88.84982882
_symmetry_Int_Tables_number   1
_chemical_formula_structural   Ho3Ni19B10
_chemical_formula_sum   'Ho3 Ni19 B10'
_cell_volume   329.13000125
_cell_formula_units_Z   1
loop_
 _symmetry_equiv_pos_site_id
 _symmetry_equiv_pos_as_xyz
  1  'x, y, z'
loop_
 _atom_site_type_symbol
 _atom_site_label
 _atom_site_symmetry_multiplicity
 _atom_site_fract_x
 _atom_site_fract_y
 _atom_site_fract_z
 _atom_site_occupancy
  B  B0  1  0.569081  0.934738  0.301088  1
  B  B1  1  0.430919  0.698912  0.065262  1
  B  B2  1  0.430919  0.065262  0.698912  1
  B  B3  1  0.025171  0.142570  0.349514  1
  B  B4  1  0.025171  0.349514  0.142570  1
  B  B5  1  0.974829  0.857430  0.650486  1
  B  B6  1  0.000000  0.384709  0.615291  1
  B  B7  1  0.000000  0.615291  0.384709  1
  B  B8  1  0.569081  0.301088  0.934738  1
  B  B9  1  0.974829  0.650486  0.857430  1
  Ni  Ni10  1  0.270900  0.818214  0.818214  1
  Ni  Ni11  1  0.697699  0.517350  0.045122  1
  Ni  Ni12  1  0.697699  0.045122  0.517350  1
  Ni  Ni13  1  0.302301  0.482650  0.954878  1
  Ni  Ni14  1  0.302301  0.954878  0.482650  1
  Ni  Ni15  1  0.926287  0.878125  0.377204  1
  Ni  Ni16  1  0.926287  0.377204  0.878125  1
  Ni  Ni17  1  0.073713  0.121875  0.622796  1
  Ni  Ni18  1  0.300983  0.288934  0.770223  1
  Ni  Ni19  1  0.699017  0.229777  0.711066  1
  Ni  Ni20  1  0.699017  0.711066  0.229777  1
  Ni  Ni21  1  0.300983  0.770223  0.288934  1
  Ni  Ni22  1  0.703765  0.837767  0.837767  1
  Ni  Ni23  1  0.296235  0.162233  0.162233  1
  Ni  Ni24  1  0.873297  0.377915  0.377915  1
  Ni  Ni25  1  0.126703  0.622085  0.622085  1
  Ni  Ni26  1  0.500000  0.000000  0.000000  1
  Ni  Ni27  1  0.073713  0.622796  0.121875  1
  Ni  Ni28  1  0.729100  0.181786  0.181786  1
  Ho  Ho29  1  0.385759  0.374268  0.374268  1
  Ho  Ho30  1  0.614241  0.625732  0.625732  1
  Ho  Ho31  1  0.000000  0.000000  0.000000  1
