# generated using pymatgen
data_HoB4Ru
_symmetry_space_group_name_H-M   'P 1'
_cell_length_a   5.94847844
_cell_length_b   11.50563451
_cell_length_c   3.54977532
_cell_angle_alpha   89.99969205
_cell_angle_beta   90.00005872
_cell_angle_gamma   90.00044461
_symmetry_Int_Tables_number   1
_chemical_formula_structural   HoB4Ru
_chemical_formula_sum   'Ho4 B16 Ru4'
_cell_volume   242.95023948
_cell_formula_units_Z   4
loop_
 _symmetry_equiv_pos_site_id
 _symmetry_equiv_pos_as_xyz
  1  'x, y, z'
loop_
 _atom_site_type_symbol
 _atom_site_label
 _atom_site_symmetry_multiplicity
 _atom_site_fract_x
 _atom_site_fract_y
 _atom_site_fract_z
 _atom_site_occupancy
  Ho  Ho0  1  0.128785  0.149829  0.000004  1
  Ho  Ho1  1  0.871207  0.850169  -0.000000  1
  Ho  Ho2  1  0.628791  0.350159  0.000005  1
  Ho  Ho3  1  0.371211  0.649837  -0.000001  1
  B  B4  1  0.476222  0.191998  0.499998  1
  B  B5  1  0.523786  0.808004  0.500003  1
  B  B6  1  0.976219  0.308001  0.499999  1
  B  B7  1  0.023777  0.691999  0.500001  1
  B  B8  1  0.289582  0.314391  0.499997  1
  B  B9  1  0.710421  0.685610  0.500001  1
  B  B10  1  0.789583  0.185608  0.499998  1
  B  B11  1  0.210412  0.814393  0.500003  1
  B  B12  1  0.364206  0.469782  0.500001  1
  B  B13  1  0.635794  0.530217  0.499999  1
  B  B14  1  0.864205  0.030219  0.499997  1
  B  B15  1  0.135794  0.969783  0.499998  1
  B  B16  1  0.387711  0.046876  0.500000  1
  B  B17  1  0.612290  0.953127  0.499999  1
  B  B18  1  0.887708  0.453126  0.499999  1
  B  B19  1  0.112293  0.546875  0.500002  1
  Ru  Ru20  1  0.140622  0.407234  0.999991  1
  Ru  Ru21  1  0.859387  0.592763  -0.000000  1
  Ru  Ru22  1  0.640623  0.092762  0.000004  1
  Ru  Ru23  1  0.359373  0.907237  0.000003  1
