# generated using pymatgen
data_HoB4W
_symmetry_space_group_name_H-M   'P 1'
_cell_length_a   6.03174424
_cell_length_b   11.65355031
_cell_length_c   3.61903112
_cell_angle_alpha   89.99999460
_cell_angle_beta   90.00004474
_cell_angle_gamma   90.00042315
_symmetry_Int_Tables_number   1
_chemical_formula_structural   HoB4W
_chemical_formula_sum   'Ho4 B16 W4'
_cell_volume   254.38616677
_cell_formula_units_Z   4
loop_
 _symmetry_equiv_pos_site_id
 _symmetry_equiv_pos_as_xyz
  1  'x, y, z'
loop_
 _atom_site_type_symbol
 _atom_site_label
 _atom_site_symmetry_multiplicity
 _atom_site_fract_x
 _atom_site_fract_y
 _atom_site_fract_z
 _atom_site_occupancy
  Ho  Ho0  1  0.127119  0.149596  -0.000001  1
  Ho  Ho1  1  0.872889  0.850416  0.999999  1
  Ho  Ho2  1  0.627109  0.350410  0.000002  1
  Ho  Ho3  1  0.372877  0.649585  0.000000  1
  B  B4  1  0.476849  0.193563  0.499998  1
  B  B5  1  0.523146  0.806438  0.500002  1
  B  B6  1  0.976855  0.306439  0.500000  1
  B  B7  1  0.023158  0.693563  0.500002  1
  B  B8  1  0.287800  0.313377  0.499998  1
  B  B9  1  0.712191  0.686629  0.500002  1
  B  B10  1  0.787808  0.186628  0.499998  1
  B  B11  1  0.212195  0.813374  0.499999  1
  B  B12  1  0.366802  0.467934  0.499998  1
  B  B13  1  0.633192  0.532059  0.500002  1
  B  B14  1  0.866809  0.032063  0.500001  1
  B  B15  1  0.133195  0.967936  0.499998  1
  B  B16  1  0.385836  0.047531  0.500000  1
  B  B17  1  0.614160  0.952466  0.500000  1
  B  B18  1  0.885845  0.452463  0.499999  1
  B  B19  1  0.114168  0.547528  0.500000  1
  W  W20  1  0.131128  0.415391  0.999997  1
  W  W21  1  0.868871  0.584606  0.000005  1
  W  W22  1  0.631132  0.084609  -0.000001  1
  W  W23  1  0.368868  0.915395  0.000001  1
