# generated using pymatgen
data_HoCoO3
_symmetry_space_group_name_H-M   'P 1'
_cell_length_a   5.21474926
_cell_length_b   5.73538015
_cell_length_c   7.32890420
_cell_angle_alpha   90.00000000
_cell_angle_beta   90.00000000
_cell_angle_gamma   90.00000000
_symmetry_Int_Tables_number   1
_chemical_formula_structural   HoCoO3
_chemical_formula_sum   'Ho4 Co4 O12'
_cell_volume   219.19703984
_cell_formula_units_Z   4
loop_
 _symmetry_equiv_pos_site_id
 _symmetry_equiv_pos_as_xyz
  1  'x, y, z'
loop_
 _atom_site_type_symbol
 _atom_site_label
 _atom_site_symmetry_multiplicity
 _atom_site_fract_x
 _atom_site_fract_y
 _atom_site_fract_z
 _atom_site_occupancy
  O  O0  1  0.698132  0.316809  0.447250  1
  O  O1  1  0.198131  0.183190  0.552751  1
  O  O2  1  0.801869  0.816810  0.052751  1
  O  O3  1  0.301869  0.683191  0.947250  1
  O  O4  1  0.301869  0.683191  0.552751  1
  O  O5  1  0.801869  0.816810  0.447250  1
  O  O6  1  0.198131  0.183190  0.947250  1
  O  O7  1  0.698132  0.316809  0.052751  1
  O  O8  1  0.112249  0.468099  0.250001  1
  O  O9  1  0.612250  0.031901  0.750000  1
  O  O10  1  0.887751  0.531900  0.750000  1
  O  O11  1  0.387751  0.968098  0.250001  1
  Co  Co12  1  0.500000  0.000000  0.500000  1
  Co  Co13  1  0.000000  0.500001  0.500000  1
  Co  Co14  1  0.000000  0.500001  0.000000  1
  Co  Co15  1  0.500000  0.000000  0.000000  1
  Ho  Ho16  1  0.024537  0.914356  0.750000  1
  Ho  Ho17  1  0.524538  0.585644  0.250001  1
  Ho  Ho18  1  0.475463  0.414356  0.750000  1
  Ho  Ho19  1  0.975463  0.085643  0.250001  1
