# generated using pymatgen
data_CeZr7O16
_symmetry_space_group_name_H-M   'P 1'
_cell_length_a   7.48272502
_cell_length_b   7.50368226
_cell_length_c   6.94138326
_cell_angle_alpha   63.61112500
_cell_angle_beta   63.56457533
_cell_angle_gamma   90.15032582
_symmetry_Int_Tables_number   1
_chemical_formula_structural   CeZr7O16
_chemical_formula_sum   'Ce1 Zr7 O16'
_cell_volume   302.70293018
_cell_formula_units_Z   1
loop_
 _symmetry_equiv_pos_site_id
 _symmetry_equiv_pos_as_xyz
  1  'x, y, z'
loop_
 _atom_site_type_symbol
 _atom_site_label
 _atom_site_symmetry_multiplicity
 _atom_site_fract_x
 _atom_site_fract_y
 _atom_site_fract_z
 _atom_site_occupancy
  Ce  Ce0  1  0.451238  0.985286  0.293909  1
  Zr  Zr1  1  0.018115  0.056572  0.206811  1
  Zr  Zr2  1  0.049726  0.504916  0.713705  1
  Zr  Zr3  1  0.560579  0.013999  0.710093  1
  Zr  Zr4  1  0.510447  0.552975  0.206245  1
  Zr  Zr5  1  0.489840  0.448598  0.786023  1
  Zr  Zr6  1  0.946502  0.489850  0.288913  1
  Zr  Zr7  1  0.987815  0.942385  0.792724  1
  O  O8  1  0.133256  0.388976  0.023434  1
  O  O9  1  0.487615  0.318163  0.135239  1
  O  O10  1  0.003036  0.189710  0.863124  1
  O  O11  1  0.192599  0.516324  0.355355  1
  O  O12  1  0.701780  0.013317  0.365897  1
  O  O13  1  0.365160  0.116559  0.965683  1
  O  O14  1  0.614005  0.368100  0.471358  1
  O  O15  1  0.096592  0.860664  0.487288  1
  O  O16  1  0.896083  0.140759  0.522583  1
  O  O17  1  0.385736  0.622209  0.526986  1
  O  O18  1  0.640157  0.883703  0.010259  1
  O  O19  1  0.805094  0.483627  0.645752  1
  O  O20  1  0.305242  0.992959  0.651332  1
  O  O21  1  0.983351  0.807250  0.146705  1
  O  O22  1  0.507820  0.695442  0.852306  1
  O  O23  1  0.868212  0.607658  0.978281  1
