# generated using pymatgen
data_Ho2CuO4
_symmetry_space_group_name_H-M   'P 1'
_cell_length_a   5.47871512
_cell_length_b   6.52028261
_cell_length_c   5.48364401
_cell_angle_alpha   114.86657190
_cell_angle_beta   90.00000000
_cell_angle_gamma   90.00000000
_symmetry_Int_Tables_number   1
_chemical_formula_structural   Ho2CuO4
_chemical_formula_sum   'Ho4 Cu2 O8'
_cell_volume   177.72981098
_cell_formula_units_Z   2
loop_
 _symmetry_equiv_pos_site_id
 _symmetry_equiv_pos_as_xyz
  1  'x, y, z'
loop_
 _atom_site_type_symbol
 _atom_site_label
 _atom_site_symmetry_multiplicity
 _atom_site_fract_x
 _atom_site_fract_y
 _atom_site_fract_z
 _atom_site_occupancy
  Ho  Ho0  1  0.000000  0.309902  0.654951  1
  Ho  Ho1  1  0.000000  0.690098  0.345049  1
  Ho  Ho2  1  0.500000  0.690098  0.845049  1
  Ho  Ho3  1  0.500000  0.309902  0.154951  1
  Cu  Cu4  1  0.000000  0.000000  0.000000  1
  Cu  Cu5  1  0.500000  0.000000  0.500000  1
  O  O6  1  0.195426  0.000000  0.305027  1
  O  O7  1  0.250000  0.500000  0.989268  1
  O  O8  1  0.250000  0.500000  0.489268  1
  O  O9  1  0.304574  0.000000  0.805027  1
  O  O10  1  0.695426  0.000000  0.194973  1
  O  O11  1  0.750000  0.500000  0.510732  1
  O  O12  1  0.750000  0.500000  0.010732  1
  O  O13  1  0.804574  0.000000  0.694973  1
