# generated using pymatgen
data_Ho2HgO4
_symmetry_space_group_name_H-M   'P 1'
_cell_length_a   3.61691319
_cell_length_b   7.06349062
_cell_length_c   8.81687590
_cell_angle_alpha   78.30240843
_cell_angle_beta   78.16388112
_cell_angle_gamma   75.16544875
_symmetry_Int_Tables_number   1
_chemical_formula_structural   Ho2HgO4
_chemical_formula_sum   'Ho4 Hg2 O8'
_cell_volume   210.41243307
_cell_formula_units_Z   2
loop_
 _symmetry_equiv_pos_site_id
 _symmetry_equiv_pos_as_xyz
  1  'x, y, z'
loop_
 _atom_site_type_symbol
 _atom_site_label
 _atom_site_symmetry_multiplicity
 _atom_site_fract_x
 _atom_site_fract_y
 _atom_site_fract_z
 _atom_site_occupancy
  O  O0  1  0.917814  0.511783  0.652588  1
  O  O1  1  0.082186  0.488217  0.347412  1
  O  O2  1  0.731846  0.147970  0.388339  1
  O  O3  1  0.268154  0.852030  0.611661  1
  O  O4  1  0.296542  0.352575  0.054340  1
  O  O5  1  0.703458  0.647425  0.945660  1
  O  O6  1  0.465386  0.785978  0.283250  1
  O  O7  1  0.534614  0.214022  0.716750  1
  Ho  Ho8  1  0.118916  0.225039  0.537129  1
  Ho  Ho9  1  0.881084  0.774961  0.462871  1
  Ho  Ho10  1  0.341128  0.517660  0.800084  1
  Ho  Ho11  1  0.658872  0.482340  0.199916  1
  Hg  Hg12  1  0.386328  0.065484  0.161860  1
  Hg  Hg13  1  0.613672  0.934516  0.838140  1
