# generated using pymatgen
data_HoReB4
_symmetry_space_group_name_H-M   'P 1'
_cell_length_a   5.96552552
_cell_length_b   11.54082242
_cell_length_c   3.60760635
_cell_angle_alpha   89.99998114
_cell_angle_beta   90.00040792
_cell_angle_gamma   89.99954347
_symmetry_Int_Tables_number   1
_chemical_formula_structural   HoReB4
_chemical_formula_sum   'Ho4 Re4 B16'
_cell_volume   248.37312931
_cell_formula_units_Z   4
loop_
 _symmetry_equiv_pos_site_id
 _symmetry_equiv_pos_as_xyz
  1  'x, y, z'
loop_
 _atom_site_type_symbol
 _atom_site_label
 _atom_site_symmetry_multiplicity
 _atom_site_fract_x
 _atom_site_fract_y
 _atom_site_fract_z
 _atom_site_occupancy
  Ho  Ho0  1  0.126711  0.150013  0.000002  1
  Ho  Ho1  1  0.873267  0.849989  0.000008  1
  Ho  Ho2  1  0.626732  0.349980  0.000016  1
  Ho  Ho3  1  0.373276  0.650021  -0.000003  1
  Re  Re4  1  0.133422  0.412256  0.999992  1
  Re  Re5  1  0.866569  0.587736  0.999988  1
  Re  Re6  1  0.633433  0.087724  0.000008  1
  Re  Re7  1  0.366580  0.912277  0.000002  1
  B  B8  1  0.477148  0.192458  0.499993  1
  B  B9  1  0.522865  0.807544  0.499998  1
  B  B10  1  0.977132  0.307538  0.500007  1
  B  B11  1  0.022864  0.692462  0.500007  1
  B  B12  1  0.287800  0.314985  0.499994  1
  B  B13  1  0.712201  0.685017  0.499995  1
  B  B14  1  0.787807  0.185011  0.499991  1
  B  B15  1  0.212199  0.814988  0.500001  1
  B  B16  1  0.364226  0.468611  0.500004  1
  B  B17  1  0.635775  0.531385  0.500009  1
  B  B18  1  0.864227  0.031391  0.500000  1
  B  B19  1  0.135771  0.968619  0.500012  1
  B  B20  1  0.386066  0.047454  0.500004  1
  B  B21  1  0.613937  0.952545  0.500000  1
  B  B22  1  0.886059  0.452535  0.500001  1
  B  B23  1  0.113931  0.547463  0.500005  1
