# generated using pymatgen
data_CeZr9O20
_symmetry_space_group_name_H-M   'P 1'
_cell_length_a   8.20935709
_cell_length_b   7.43153012
_cell_length_c   6.46175074
_cell_angle_alpha   72.06122157
_cell_angle_beta   75.28285104
_cell_angle_gamma   77.23293735
_symmetry_Int_Tables_number   1
_chemical_formula_structural   CeZr9O20
_chemical_formula_sum   'Ce1 Zr9 O20'
_cell_volume   358.35855939
_cell_formula_units_Z   1
loop_
 _symmetry_equiv_pos_site_id
 _symmetry_equiv_pos_as_xyz
  1  'x, y, z'
loop_
 _atom_site_type_symbol
 _atom_site_label
 _atom_site_symmetry_multiplicity
 _atom_site_fract_x
 _atom_site_fract_y
 _atom_site_fract_z
 _atom_site_occupancy
  Ce  Ce0  1  0.399810  0.698956  0.799405  1
  Zr  Zr1  1  0.800314  0.396283  0.601855  1
  Zr  Zr2  1  0.404217  0.198352  0.800737  1
  Zr  Zr3  1  0.197729  0.104541  0.399148  1
  Zr  Zr4  1  0.804258  0.900734  0.596623  1
  Zr  Zr5  1  0.600919  0.298314  0.203946  1
  Zr  Zr6  1  0.197176  0.602627  0.398073  1
  Zr  Zr7  1  0.600870  0.802939  0.196619  1
  Zr  Zr8  1  0.997724  0.999938  0.002492  1
  Zr  Zr9  1  0.997685  0.497607  0.000549  1
  O  O10  1  0.959773  0.079439  0.616174  1
  O  O11  1  0.866835  0.279008  0.914690  1
  O  O12  1  0.236444  0.025273  0.782161  1
  O  O13  1  0.940606  0.624090  0.683022  1
  O  O14  1  0.838506  0.822898  0.982468  1
  O  O15  1  0.547907  0.405136  0.881414  1
  O  O16  1  0.738367  0.021124  0.281847  1
  O  O17  1  0.638016  0.227261  0.572302  1
  O  O18  1  0.258347  0.475627  0.718421  1
  O  O19  1  0.458248  0.078631  0.120618  1
  O  O20  1  0.361032  0.277996  0.417060  1
  O  O21  1  0.664972  0.679149  0.513504  1
  O  O22  1  0.566079  0.891395  0.820052  1
  O  O23  1  0.761084  0.477634  0.215597  1
  O  O24  1  0.334830  0.823452  0.466085  1
  O  O25  1  0.442751  0.616295  0.185276  1
  O  O26  1  0.040286  0.417111  0.390560  1
  O  O27  1  0.138878  0.223205  0.084126  1
  O  O28  1  0.151022  0.676102  0.034581  1
  O  O29  1  0.055313  0.878885  0.320597  1
