# generated using pymatgen
data_HoTiO3
_symmetry_space_group_name_H-M   'P 1'
_cell_length_a   5.32805548
_cell_length_b   7.67449453
_cell_length_c   5.69245060
_cell_angle_alpha   90.00946813
_cell_angle_beta   90.00162666
_cell_angle_gamma   90.00636450
_symmetry_Int_Tables_number   1
_chemical_formula_structural   HoTiO3
_chemical_formula_sum   'Ho4 Ti4 O12'
_cell_volume   232.76505524
_cell_formula_units_Z   4
loop_
 _symmetry_equiv_pos_site_id
 _symmetry_equiv_pos_as_xyz
  1  'x, y, z'
loop_
 _atom_site_type_symbol
 _atom_site_label
 _atom_site_symmetry_multiplicity
 _atom_site_fract_x
 _atom_site_fract_y
 _atom_site_fract_z
 _atom_site_occupancy
  Ho  Ho0  1  0.019174  0.756937  0.071920  1
  Ho  Ho1  1  0.480828  0.756940  0.571898  1
  Ho  Ho2  1  0.519172  0.256884  0.428098  1
  Ho  Ho3  1  0.980828  0.256881  0.928081  1
  Ti  Ti4  1  0.999947  0.507889  0.499145  1
  Ti  Ti5  1  0.500055  0.507889  0.999146  1
  Ti  Ti6  1  0.499948  0.007885  0.000856  1
  Ti  Ti7  1  0.000050  0.007888  0.500854  1
  O  O8  1  0.121298  0.258115  0.546265  1
  O  O9  1  0.186784  0.566281  0.804676  1
  O  O10  1  0.184928  0.951049  0.808680  1
  O  O11  1  0.313255  0.566287  0.304642  1
  O  O12  1  0.315069  0.951045  0.308685  1
  O  O13  1  0.378684  0.258159  0.046263  1
  O  O14  1  0.621309  0.758087  0.953749  1
  O  O15  1  0.686760  0.066280  0.695335  1
  O  O16  1  0.684914  0.451044  0.691335  1
  O  O17  1  0.813249  0.066276  0.195345  1
  O  O18  1  0.815044  0.451053  0.191302  1
  O  O19  1  0.878704  0.758131  0.453724  1
