# generated using pymatgen
data_HoVB4
_symmetry_space_group_name_H-M   'P 1'
_cell_length_a   5.98960084
_cell_length_b   11.59536903
_cell_length_c   3.43638059
_cell_angle_alpha   90.00015901
_cell_angle_beta   90.00014468
_cell_angle_gamma   90.00001234
_symmetry_Int_Tables_number   1
_chemical_formula_structural   HoVB4
_chemical_formula_sum   'Ho4 V4 B16'
_cell_volume   238.66224043
_cell_formula_units_Z   4
loop_
 _symmetry_equiv_pos_site_id
 _symmetry_equiv_pos_as_xyz
  1  'x, y, z'
loop_
 _atom_site_type_symbol
 _atom_site_label
 _atom_site_symmetry_multiplicity
 _atom_site_fract_x
 _atom_site_fract_y
 _atom_site_fract_z
 _atom_site_occupancy
  Ho  Ho0  1  0.124122  0.151486  0.999999  1
  Ho  Ho1  1  0.875879  0.848501  -0.000001  1
  Ho  Ho2  1  0.624127  0.348529  0.000000  1
  Ho  Ho3  1  0.375880  0.651480  -0.000001  1
  V  V4  1  0.127296  0.417110  0.000001  1
  V  V5  1  0.872708  0.582894  -0.000002  1
  V  V6  1  0.627288  0.082890  0.000004  1
  V  V7  1  0.372711  0.917107  0.000001  1
  B  B8  1  0.477208  0.192482  0.499998  1
  B  B9  1  0.522794  0.807520  0.500001  1
  B  B10  1  0.977201  0.307520  0.500001  1
  B  B11  1  0.022794  0.692479  0.500000  1
  B  B12  1  0.286533  0.314217  0.500001  1
  B  B13  1  0.713472  0.685779  0.499999  1
  B  B14  1  0.786526  0.185780  0.499999  1
  B  B15  1  0.213474  0.814219  0.500003  1
  B  B16  1  0.364764  0.467446  0.500000  1
  B  B17  1  0.635238  0.532562  0.500003  1
  B  B18  1  0.864760  0.032559  0.500001  1
  B  B19  1  0.135236  0.967441  0.500002  1
  B  B20  1  0.385233  0.047517  0.500003  1
  B  B21  1  0.614765  0.952478  0.500001  1
  B  B22  1  0.885233  0.452484  0.500002  1
  B  B23  1  0.114765  0.547521  0.500000  1
