# generated using pymatgen
data_Ho2(WO4)3
_symmetry_space_group_name_H-M   'P 1'
_cell_length_a   6.92624746
_cell_length_b   6.92624746
_cell_length_c   11.42713224
_cell_angle_alpha   79.02965759
_cell_angle_beta   100.97034241
_cell_angle_gamma   67.84343765
_symmetry_Int_Tables_number   1
_chemical_formula_structural   Ho2(WO4)3
_chemical_formula_sum   'Ho4 W6 O24'
_cell_volume   477.28096331
_cell_formula_units_Z   2
loop_
 _symmetry_equiv_pos_site_id
 _symmetry_equiv_pos_as_xyz
  1  'x, y, z'
loop_
 _atom_site_type_symbol
 _atom_site_label
 _atom_site_symmetry_multiplicity
 _atom_site_fract_x
 _atom_site_fract_y
 _atom_site_fract_z
 _atom_site_occupancy
  Ho  Ho0  1  0.305430  0.949682  0.593115  1
  Ho  Ho1  1  0.050318  0.694570  0.093115  1
  Ho  Ho2  1  0.949682  0.305430  0.906885  1
  Ho  Ho3  1  0.694570  0.050318  0.406885  1
  W  W4  1  0.490322  0.795761  0.950822  1
  W  W5  1  0.204239  0.509678  0.450822  1
  W  W6  1  0.881928  0.881928  0.750000  1
  W  W7  1  0.118072  0.118072  0.250000  1
  W  W8  1  0.795761  0.490322  0.549178  1
  W  W9  1  0.509678  0.204239  0.049178  1
  O  O10  1  0.347006  0.797380  0.798269  1
  O  O11  1  0.590985  0.989563  0.719418  1
  O  O12  1  0.973420  0.947096  0.894120  1
  O  O13  1  0.328925  0.608543  0.561770  1
  O  O14  1  0.781187  0.619161  0.962121  1
  O  O15  1  0.103421  0.320652  0.575963  1
  O  O16  1  0.202620  0.652994  0.298269  1
  O  O17  1  0.320652  0.103421  0.924037  1
  O  O18  1  0.619161  0.781187  0.537879  1
  O  O19  1  0.608543  0.328925  0.938230  1
  O  O20  1  0.947096  0.973420  0.605880  1
  O  O21  1  0.010437  0.409015  0.219418  1
  O  O22  1  0.989563  0.590985  0.780582  1
  O  O23  1  0.052904  0.026580  0.394120  1
  O  O24  1  0.391457  0.671075  0.061770  1
  O  O25  1  0.380839  0.218813  0.462121  1
  O  O26  1  0.679348  0.896579  0.075963  1
  O  O27  1  0.797380  0.347006  0.701731  1
  O  O28  1  0.896579  0.679348  0.424037  1
  O  O29  1  0.218813  0.380839  0.037879  1
  O  O30  1  0.671075  0.391457  0.438230  1
  O  O31  1  0.026580  0.052904  0.105880  1
  O  O32  1  0.409015  0.010437  0.280582  1
  O  O33  1  0.652994  0.202620  0.201731  1
