# generated using pymatgen
data_HoZn3
_symmetry_space_group_name_H-M   'P 1'
_cell_length_a   4.36730958
_cell_length_b   6.70660174
_cell_length_c   10.05352764
_cell_angle_alpha   90.00000000
_cell_angle_beta   90.00000000
_cell_angle_gamma   90.00000000
_symmetry_Int_Tables_number   1
_chemical_formula_structural   HoZn3
_chemical_formula_sum   'Ho4 Zn12'
_cell_volume   294.46587448
_cell_formula_units_Z   4
loop_
 _symmetry_equiv_pos_site_id
 _symmetry_equiv_pos_as_xyz
  1  'x, y, z'
loop_
 _atom_site_type_symbol
 _atom_site_label
 _atom_site_symmetry_multiplicity
 _atom_site_fract_x
 _atom_site_fract_y
 _atom_site_fract_z
 _atom_site_occupancy
  Zn  Zn0  1  0.250000  0.036666  0.603838  1
  Zn  Zn1  1  0.750000  0.963334  0.396162  1
  Zn  Zn2  1  0.250000  0.536666  0.896162  1
  Zn  Zn3  1  0.750000  0.463334  0.103838  1
  Zn  Zn4  1  0.750000  0.782967  0.957066  1
  Zn  Zn5  1  0.250000  0.217033  0.042934  1
  Zn  Zn6  1  0.750000  0.282967  0.542934  1
  Zn  Zn7  1  0.250000  0.717033  0.457066  1
  Zn  Zn8  1  0.750000  0.081893  0.147693  1
  Zn  Zn9  1  0.250000  0.918107  0.852307  1
  Zn  Zn10  1  0.750000  0.581893  0.352307  1
  Zn  Zn11  1  0.250000  0.418107  0.647693  1
  Ho  Ho12  1  0.250000  0.780080  0.162449  1
  Ho  Ho13  1  0.750000  0.219920  0.837551  1
  Ho  Ho14  1  0.250000  0.280080  0.337551  1
  Ho  Ho15  1  0.750000  0.719920  0.662449  1
