# generated using pymatgen
data_Ho2Zr2O7
_symmetry_space_group_name_H-M   'P 1'
_cell_length_a   3.60393157
_cell_length_b   14.86697046
_cell_length_c   12.82758136
_cell_angle_alpha   30.36482574
_cell_angle_beta   55.81245101
_cell_angle_gamma   60.99905599
_symmetry_Int_Tables_number   1
_chemical_formula_structural   Ho2Zr2O7
_chemical_formula_sum   'Ho4 Zr4 O14'
_cell_volume   287.39583861
_cell_formula_units_Z   2
loop_
 _symmetry_equiv_pos_site_id
 _symmetry_equiv_pos_as_xyz
  1  'x, y, z'
loop_
 _atom_site_type_symbol
 _atom_site_label
 _atom_site_symmetry_multiplicity
 _atom_site_fract_x
 _atom_site_fract_y
 _atom_site_fract_z
 _atom_site_occupancy
  Ho  Ho0  1  0.000000  0.250000  0.000000  1
  Ho  Ho1  1  0.951357  0.000000  0.524321  1
  Ho  Ho2  1  0.048643  0.500000  0.475679  1
  Ho  Ho3  1  0.000000  0.750000  0.500000  1
  Zr  Zr4  1  0.010159  0.000000  0.994921  1
  Zr  Zr5  1  0.989841  0.500000  0.005079  1
  Zr  Zr6  1  0.000000  0.250000  0.500000  1
  Zr  Zr7  1  0.000000  0.750000  0.000000  1
  O  O8  1  0.238990  0.000000  0.130505  1
  O  O9  1  0.241782  0.206412  0.172697  1
  O  O10  1  0.223450  0.000000  0.638275  1
  O  O11  1  0.264756  0.500000  0.117622  1
  O  O12  1  0.261060  0.231228  0.638242  1
  O  O13  1  0.261060  0.768772  0.100698  1
  O  O14  1  0.738940  0.268772  0.361758  1
  O  O15  1  0.776550  0.500000  0.361725  1
  O  O16  1  0.735244  0.000000  0.882378  1
  O  O17  1  0.758218  0.293588  0.827303  1
  O  O18  1  0.241782  0.793588  0.585521  1
  O  O19  1  0.758218  0.706412  0.414479  1
  O  O20  1  0.761010  0.500000  0.869495  1
  O  O21  1  0.738940  0.731228  0.899302  1
