# generated using pymatgen
data_Ho3CrB7
_symmetry_space_group_name_H-M   'P 1'
_cell_length_a   3.42778029
_cell_length_b   8.06353828
_cell_length_c   9.32185694
_cell_angle_alpha   90.00000000
_cell_angle_beta   90.00000000
_cell_angle_gamma   102.27172226
_symmetry_Int_Tables_number   1
_chemical_formula_structural   Ho3CrB7
_chemical_formula_sum   'Ho6 Cr2 B14'
_cell_volume   251.76917874
_cell_formula_units_Z   2
loop_
 _symmetry_equiv_pos_site_id
 _symmetry_equiv_pos_as_xyz
  1  'x, y, z'
loop_
 _atom_site_type_symbol
 _atom_site_label
 _atom_site_symmetry_multiplicity
 _atom_site_fract_x
 _atom_site_fract_y
 _atom_site_fract_z
 _atom_site_occupancy
  B  B0  1  0.272851  0.545701  0.532229  1
  B  B1  1  0.727149  0.454299  0.467771  1
  B  B2  1  0.727149  0.454299  0.032229  1
  B  B3  1  0.272851  0.545701  0.967771  1
  B  B4  1  0.478826  0.957652  0.903690  1
  B  B5  1  0.521174  0.042348  0.096310  1
  B  B6  1  0.521174  0.042348  0.403690  1
  B  B7  1  0.478826  0.957652  0.596310  1
  B  B8  1  0.540970  0.081939  0.750000  1
  B  B9  1  0.459030  0.918061  0.250000  1
  B  B10  1  0.368867  0.737735  0.651311  1
  B  B11  1  0.631133  0.262265  0.348689  1
  B  B12  1  0.631133  0.262265  0.151311  1
  B  B13  1  0.368867  0.737735  0.848689  1
  Cr  Cr14  1  0.946729  0.893457  0.750000  1
  Cr  Cr15  1  0.053271  0.106543  0.250000  1
  Ho  Ho16  1  0.895077  0.790153  0.059715  1
  Ho  Ho17  1  0.104923  0.209847  0.940285  1
  Ho  Ho18  1  0.241490  0.482980  0.250000  1
  Ho  Ho19  1  0.758510  0.517020  0.750000  1
  Ho  Ho20  1  0.895077  0.790153  0.440285  1
  Ho  Ho21  1  0.104923  0.209847  0.559715  1
