# generated using pymatgen
data_HoMnO3
_symmetry_space_group_name_H-M   'P 1'
_cell_length_a   6.19824871
_cell_length_b   6.19824871
_cell_length_c   11.53951941
_cell_angle_alpha   90.00000000
_cell_angle_beta   90.00000000
_cell_angle_gamma   120.00000005
_symmetry_Int_Tables_number   1
_chemical_formula_structural   HoMnO3
_chemical_formula_sum   'Ho6 Mn6 O18'
_cell_volume   383.93380315
_cell_formula_units_Z   6
loop_
 _symmetry_equiv_pos_site_id
 _symmetry_equiv_pos_as_xyz
  1  'x, y, z'
loop_
 _atom_site_type_symbol
 _atom_site_label
 _atom_site_symmetry_multiplicity
 _atom_site_fract_x
 _atom_site_fract_y
 _atom_site_fract_z
 _atom_site_occupancy
  O  O0  1  0.666667  0.333333  0.020253  1
  O  O1  1  0.333333  0.666667  0.520253  1
  O  O2  1  0.666667  0.333333  0.520253  1
  O  O3  1  0.333333  0.666667  0.020253  1
  O  O4  1  0.000000  0.000000  0.974406  1
  O  O5  1  0.000000  0.000000  0.474406  1
  O  O6  1  0.359234  0.000000  0.834411  1
  O  O7  1  0.359234  0.359234  0.334411  1
  O  O8  1  0.000000  0.640766  0.334411  1
  O  O9  1  0.000000  0.359234  0.834411  1
  O  O10  1  0.640766  0.640766  0.834411  1
  O  O11  1  0.640766  0.000000  0.334411  1
  O  O12  1  0.307030  0.000000  0.164223  1
  O  O13  1  0.307030  0.307030  0.664223  1
  O  O14  1  0.000000  0.692970  0.664223  1
  O  O15  1  0.000000  0.307030  0.164223  1
  O  O16  1  0.692970  0.692970  0.164223  1
  O  O17  1  0.692970  0.000000  0.664223  1
  Mn  Mn18  1  0.666533  0.000000  0.499194  1
  Mn  Mn19  1  0.666533  0.666533  0.999194  1
  Mn  Mn20  1  0.000000  0.333467  0.999194  1
  Mn  Mn21  1  0.000000  0.666533  0.499194  1
  Mn  Mn22  1  0.333467  0.333467  0.499194  1
  Mn  Mn23  1  0.333467  0.000000  0.999194  1
  Ho  Ho24  1  0.666667  0.333333  0.230294  1
  Ho  Ho25  1  0.333333  0.666667  0.730294  1
  Ho  Ho26  1  0.666667  0.333333  0.730294  1
  Ho  Ho27  1  0.333333  0.666667  0.230294  1
  Ho  Ho28  1  0.000000  0.000000  0.774017  1
  Ho  Ho29  1  0.000000  0.000000  0.274017  1
