# generated using pymatgen
data_Ho3Pd2
_symmetry_space_group_name_H-M   'P 1'
_cell_length_a   3.94206251
_cell_length_b   7.76949823
_cell_length_c   7.76949823
_cell_angle_alpha   90.00000000
_cell_angle_beta   90.00000000
_cell_angle_gamma   90.00000000
_symmetry_Int_Tables_number   1
_chemical_formula_structural   Ho3Pd2
_chemical_formula_sum   'Ho6 Pd4'
_cell_volume   237.96300845
_cell_formula_units_Z   2
loop_
 _symmetry_equiv_pos_site_id
 _symmetry_equiv_pos_as_xyz
  1  'x, y, z'
loop_
 _atom_site_type_symbol
 _atom_site_label
 _atom_site_symmetry_multiplicity
 _atom_site_fract_x
 _atom_site_fract_y
 _atom_site_fract_z
 _atom_site_occupancy
  Pd  Pd0  1  0.000000  0.633328  0.133328  1
  Pd  Pd1  1  0.000000  0.866672  0.633328  1
  Pd  Pd2  1  0.000000  0.133328  0.366672  1
  Pd  Pd3  1  0.000000  0.366672  0.866672  1
  Ho  Ho4  1  0.500000  0.664359  0.835641  1
  Ho  Ho5  1  0.500000  0.835641  0.335641  1
  Ho  Ho6  1  0.500000  0.335641  0.164359  1
  Ho  Ho7  1  0.500000  0.164359  0.664359  1
  Ho  Ho8  1  0.000000  0.500000  0.500000  1
  Ho  Ho9  1  0.000000  0.000000  0.000000  1
