# generated using pymatgen
data_Ce5Rh4
_symmetry_space_group_name_H-M   'P 1'
_cell_length_a   7.35615674
_cell_length_b   7.51594556
_cell_length_c   15.07582118
_cell_angle_alpha   89.98573552
_cell_angle_beta   89.97790442
_cell_angle_gamma   90.03153514
_symmetry_Int_Tables_number   1
_chemical_formula_structural   Ce5Rh4
_chemical_formula_sum   'Ce20 Rh16'
_cell_volume   833.51892722
_cell_formula_units_Z   4
loop_
 _symmetry_equiv_pos_site_id
 _symmetry_equiv_pos_as_xyz
  1  'x, y, z'
loop_
 _atom_site_type_symbol
 _atom_site_label
 _atom_site_symmetry_multiplicity
 _atom_site_fract_x
 _atom_site_fract_y
 _atom_site_fract_z
 _atom_site_occupancy
  Ce  Ce0  1  0.011612  0.178496  0.409134  1
  Ce  Ce1  1  0.834641  0.334550  0.878310  1
  Ce  Ce2  1  0.988344  0.821658  0.908956  1
  Ce  Ce3  1  0.178127  0.526449  0.749868  1
  Ce  Ce4  1  0.511751  0.321471  0.090866  1
  Ce  Ce5  1  0.488267  0.678393  0.908966  1
  Ce  Ce6  1  0.165420  0.665321  0.121691  1
  Ce  Ce7  1  0.334637  0.165437  0.621665  1
  Ce  Ce8  1  0.677951  0.973430  0.749889  1
  Ce  Ce9  1  0.334606  0.165381  0.878276  1
  Ce  Ce10  1  0.011607  0.178539  0.090918  1
  Ce  Ce11  1  0.488432  0.678288  0.591045  1
  Ce  Ce12  1  0.821588  0.473042  0.249993  1
  Ce  Ce13  1  0.511493  0.321697  0.409142  1
  Ce  Ce14  1  0.988424  0.821608  0.591086  1
  Ce  Ce15  1  0.834485  0.334702  0.621682  1
  Ce  Ce16  1  0.665480  0.834564  0.378441  1
  Ce  Ce17  1  0.165574  0.665215  0.378437  1
  Ce  Ce18  1  0.665498  0.834753  0.121649  1
  Ce  Ce19  1  0.321724  0.026990  0.249913  1
  Rh  Rh20  1  0.027973  0.121940  0.749989  1
  Rh  Rh21  1  0.812983  0.533806  0.039434  1
  Rh  Rh22  1  0.472170  0.621911  0.250046  1
  Rh  Rh23  1  0.186928  0.466027  0.539530  1
  Rh  Rh24  1  0.693094  0.140845  0.249959  1
  Rh  Rh25  1  0.306950  0.859270  0.750008  1
  Rh  Rh26  1  0.972157  0.878084  0.250021  1
  Rh  Rh27  1  0.686991  0.034067  0.960490  1
  Rh  Rh28  1  0.313144  0.965989  0.460603  1
  Rh  Rh29  1  0.313052  0.966181  0.039468  1
  Rh  Rh30  1  0.528003  0.378011  0.749974  1
  Rh  Rh31  1  0.686857  0.034005  0.539544  1
  Rh  Rh32  1  0.813094  0.533954  0.460545  1
  Rh  Rh33  1  0.806966  0.640781  0.750029  1
  Rh  Rh34  1  0.186945  0.465968  0.960474  1
  Rh  Rh35  1  0.193032  0.359180  0.249960  1
