# generated using pymatgen
data_Ho3ScO6
_symmetry_space_group_name_H-M   'P 1'
_cell_length_a   6.57563661
_cell_length_b   6.57563660
_cell_length_c   6.57563660
_cell_angle_alpha   91.99951512
_cell_angle_beta   91.99951509
_cell_angle_gamma   91.99951519
_symmetry_Int_Tables_number   1
_chemical_formula_structural   Ho3ScO6
_chemical_formula_sum   'Ho6 Sc2 O12'
_cell_volume   283.79215792
_cell_formula_units_Z   2
loop_
 _symmetry_equiv_pos_site_id
 _symmetry_equiv_pos_as_xyz
  1  'x, y, z'
loop_
 _atom_site_type_symbol
 _atom_site_label
 _atom_site_symmetry_multiplicity
 _atom_site_fract_x
 _atom_site_fract_y
 _atom_site_fract_z
 _atom_site_occupancy
  O  O0  1  0.406429  0.536588  0.192769  1
  O  O1  1  0.536588  0.192769  0.406429  1
  O  O2  1  0.192769  0.406429  0.536588  1
  O  O3  1  0.593571  0.463412  0.807231  1
  O  O4  1  0.463412  0.807231  0.593571  1
  O  O5  1  0.807231  0.593571  0.463412  1
  O  O6  1  0.930452  0.086327  0.692821  1
  O  O7  1  0.086327  0.692821  0.930452  1
  O  O8  1  0.307179  0.069548  0.913673  1
  O  O9  1  0.913673  0.307179  0.069548  1
  O  O10  1  0.069548  0.913673  0.307179  1
  O  O11  1  0.692821  0.930452  0.086327  1
  Sc  Sc12  1  0.500000  0.500000  0.500000  1
  Sc  Sc13  1  0.000000  0.000000  0.000000  1
  Ho  Ho14  1  0.252869  0.068292  0.560648  1
  Ho  Ho15  1  0.068292  0.560648  0.252869  1
  Ho  Ho16  1  0.560648  0.252869  0.068292  1
  Ho  Ho17  1  0.747131  0.931708  0.439352  1
  Ho  Ho18  1  0.931708  0.439352  0.747131  1
  Ho  Ho19  1  0.439352  0.747131  0.931708  1
