# generated using pymatgen
data_Ho3TaO7
_symmetry_space_group_name_H-M   'P 1'
_cell_length_a   6.47675821
_cell_length_b   6.47675822
_cell_length_c   7.44058764
_cell_angle_alpha   90.00000000
_cell_angle_beta   90.00000000
_cell_angle_gamma   108.55044210
_symmetry_Int_Tables_number   1
_chemical_formula_structural   Ho3TaO7
_chemical_formula_sum   'Ho6 Ta2 O14'
_cell_volume   295.90416060
_cell_formula_units_Z   2
loop_
 _symmetry_equiv_pos_site_id
 _symmetry_equiv_pos_as_xyz
  1  'x, y, z'
loop_
 _atom_site_type_symbol
 _atom_site_label
 _atom_site_symmetry_multiplicity
 _atom_site_fract_x
 _atom_site_fract_y
 _atom_site_fract_z
 _atom_site_occupancy
  O  O0  1  0.930359  0.069641  0.500000  1
  O  O1  1  0.069641  0.930359  0.000000  1
  O  O2  1  0.359853  0.640147  0.000000  1
  O  O3  1  0.640147  0.359853  0.500000  1
  O  O4  1  0.371291  0.628709  0.500000  1
  O  O5  1  0.628709  0.371291  0.000000  1
  O  O6  1  0.329221  0.083213  0.725671  1
  O  O7  1  0.670779  0.916787  0.225671  1
  O  O8  1  0.307826  0.048895  0.295612  1
  O  O9  1  0.692174  0.951105  0.795612  1
  O  O10  1  0.048895  0.307826  0.204388  1
  O  O11  1  0.951105  0.692174  0.704388  1
  O  O12  1  0.916787  0.670779  0.274329  1
  O  O13  1  0.083213  0.329221  0.774329  1
  Ho  Ho14  1  0.538643  0.538643  0.250000  1
  Ho  Ho15  1  0.461357  0.461357  0.750000  1
  Ho  Ho16  1  1.000260  0.535195  0.990879  1
  Ho  Ho17  1  -0.000260  0.464805  0.490879  1
  Ho  Ho18  1  0.535195  1.000260  0.509121  1
  Ho  Ho19  1  0.464805  -0.000260  0.009121  1
  Ta  Ta20  1  0.002443  0.002443  0.250000  1
  Ta  Ta21  1  0.997557  0.997557  0.750000  1
