# generated using pymatgen
data_Ho6WO12
_symmetry_space_group_name_H-M   'P 1'
_cell_length_a   6.46095877
_cell_length_b   6.46095877
_cell_length_c   6.46095876
_cell_angle_alpha   98.72058270
_cell_angle_beta   98.72058274
_cell_angle_gamma   98.72058274
_symmetry_Int_Tables_number   1
_chemical_formula_structural   Ho6WO12
_chemical_formula_sum   'Ho6 W1 O12'
_cell_volume   259.26429886
_cell_formula_units_Z   1
loop_
 _symmetry_equiv_pos_site_id
 _symmetry_equiv_pos_as_xyz
  1  'x, y, z'
loop_
 _atom_site_type_symbol
 _atom_site_label
 _atom_site_symmetry_multiplicity
 _atom_site_fract_x
 _atom_site_fract_y
 _atom_site_fract_z
 _atom_site_occupancy
  O  O0  1  0.431206  0.177407  0.590486  1
  O  O1  1  0.177406  0.590485  0.431205  1
  O  O2  1  0.590486  0.431206  0.177407  1
  O  O3  1  0.568795  0.822593  0.409514  1
  O  O4  1  0.822594  0.409515  0.568795  1
  O  O5  1  0.409514  0.568794  0.822593  1
  O  O6  1  0.035228  0.921504  0.702440  1
  O  O7  1  0.297559  0.964773  0.078496  1
  O  O8  1  0.078496  0.297560  0.964773  1
  O  O9  1  0.921505  0.702440  0.035227  1
  O  O10  1  0.702441  0.035227  0.921504  1
  O  O11  1  0.964772  0.078496  0.297560  1
  Ho  Ho12  1  0.144315  0.317202  0.611063  1
  Ho  Ho13  1  0.682799  0.388937  0.855684  1
  Ho  Ho14  1  0.388936  0.855684  0.682798  1
  Ho  Ho15  1  0.611064  0.144316  0.317202  1
  Ho  Ho16  1  0.317202  0.611063  0.144316  1
  Ho  Ho17  1  0.855685  0.682798  0.388937  1
  W  W18  1  0.000000  0.000000  0.000000  1
