# generated using pymatgen
data_HoCu(MoO4)2
_symmetry_space_group_name_H-M   'P 1'
_cell_length_a   9.83901434
_cell_length_b   10.26571417
_cell_length_c   14.68120654
_cell_angle_alpha   90.00000000
_cell_angle_beta   90.00000000
_cell_angle_gamma   90.00000000
_symmetry_Int_Tables_number   1
_chemical_formula_structural   HoCu(MoO4)2
_chemical_formula_sum   'Ho8 Cu8 Mo16 O64'
_cell_volume   1482.86805706
_cell_formula_units_Z   8
loop_
 _symmetry_equiv_pos_site_id
 _symmetry_equiv_pos_as_xyz
  1  'x, y, z'
loop_
 _atom_site_type_symbol
 _atom_site_label
 _atom_site_symmetry_multiplicity
 _atom_site_fract_x
 _atom_site_fract_y
 _atom_site_fract_z
 _atom_site_occupancy
  Ho  Ho0  1  0.722364  0.034471  0.603903  1
  Ho  Ho1  1  0.222364  0.965529  0.896097  1
  Ho  Ho2  1  0.277636  0.465529  0.103903  1
  Ho  Ho3  1  0.777636  0.034471  0.103903  1
  Ho  Ho4  1  0.722364  0.534471  0.896097  1
  Ho  Ho5  1  0.222364  0.465529  0.603903  1
  Ho  Ho6  1  0.277636  0.965529  0.396097  1
  Ho  Ho7  1  0.777636  0.534471  0.396097  1
  Cu  Cu8  1  0.310511  0.817174  0.196127  1
  Cu  Cu9  1  0.689489  0.682826  0.696127  1
  Cu  Cu10  1  0.810511  0.682826  0.196127  1
  Cu  Cu11  1  0.689489  0.182826  0.803873  1
  Cu  Cu12  1  0.189489  0.817174  0.696127  1
  Cu  Cu13  1  0.310511  0.317174  0.303873  1
  Cu  Cu14  1  0.810511  0.182826  0.303873  1
  Cu  Cu15  1  0.189489  0.317174  0.803873  1
  Mo  Mo16  1  0.000486  0.219153  0.443545  1
  Mo  Mo17  1  0.831402  0.396666  0.652556  1
  Mo  Mo18  1  0.668598  0.396666  0.152556  1
  Mo  Mo19  1  0.331402  0.603334  0.847444  1
  Mo  Mo20  1  0.500486  0.280847  0.443545  1
  Mo  Mo21  1  0.999514  0.280847  0.943545  1
  Mo  Mo22  1  0.000486  0.719153  0.056455  1
  Mo  Mo23  1  0.831402  0.896666  0.847444  1
  Mo  Mo24  1  0.999514  0.780847  0.556455  1
  Mo  Mo25  1  0.668598  0.896666  0.347444  1
  Mo  Mo26  1  0.168598  0.103334  0.152556  1
  Mo  Mo27  1  0.331402  0.103334  0.652556  1
  Mo  Mo28  1  0.500486  0.780847  0.056455  1
  Mo  Mo29  1  0.168598  0.603334  0.347444  1
  Mo  Mo30  1  0.499514  0.719153  0.556455  1
  Mo  Mo31  1  0.499514  0.219153  0.943545  1
  O  O32  1  0.890506  0.321102  0.368469  1
  O  O33  1  0.890506  0.821102  0.131531  1
  O  O34  1  0.742612  0.010306  0.771145  1
  O  O35  1  0.103936  0.611709  0.124172  1
  O  O36  1  0.242612  0.489694  0.771145  1
  O  O37  1  0.724353  0.232527  0.179785  1
  O  O38  1  0.903266  0.629303  0.975598  1
  O  O39  1  0.224353  0.767473  0.320215  1
  O  O40  1  0.757388  0.510306  0.228855  1
  O  O41  1  0.889940  0.170206  0.001806  1
  O  O42  1  0.775647  0.232527  0.679785  1
  O  O43  1  0.257388  0.989694  0.228855  1
  O  O44  1  0.403266  0.870697  0.975598  1
  O  O45  1  0.103936  0.111709  0.375829  1
  O  O46  1  0.757388  0.010306  0.271145  1
  O  O47  1  0.510442  0.587441  0.833362  1
  O  O48  1  0.603936  0.388291  0.375829  1
  O  O49  1  0.109494  0.678898  0.631531  1
  O  O50  1  0.610060  0.670206  0.998194  1
  O  O51  1  0.603936  0.888291  0.124172  1
  O  O52  1  0.709614  0.426698  0.036552  1
  O  O53  1  0.724353  0.732527  0.320215  1
  O  O54  1  0.489558  0.912559  0.333362  1
  O  O55  1  0.242612  0.989694  0.728855  1
  O  O56  1  0.742612  0.510306  0.728855  1
  O  O57  1  0.775647  0.732527  0.820215  1
  O  O58  1  0.290386  0.573302  0.963448  1
  O  O59  1  0.489558  0.412559  0.166638  1
  O  O60  1  0.403266  0.370697  0.524402  1
  O  O61  1  0.510442  0.087441  0.666638  1
  O  O62  1  0.290386  0.073302  0.536552  1
  O  O63  1  0.275647  0.767473  0.820215  1
  O  O64  1  0.010442  0.412559  0.666638  1
  O  O65  1  0.889940  0.670206  0.498194  1
  O  O66  1  0.709614  0.926698  0.463448  1
  O  O67  1  0.609494  0.321102  0.868469  1
  O  O68  1  0.010442  0.912559  0.833362  1
  O  O69  1  0.109494  0.178898  0.868469  1
  O  O70  1  0.275647  0.267473  0.679785  1
  O  O71  1  0.896064  0.388291  0.875829  1
  O  O72  1  0.903266  0.129303  0.524402  1
  O  O73  1  0.989558  0.587441  0.333362  1
  O  O74  1  0.896064  0.888291  0.624171  1
  O  O75  1  0.396064  0.611709  0.624171  1
  O  O76  1  0.389940  0.329794  0.001806  1
  O  O77  1  0.396064  0.111709  0.875829  1
  O  O78  1  0.596734  0.129303  0.024402  1
  O  O79  1  0.790386  0.426698  0.536552  1
  O  O80  1  0.096734  0.870697  0.475598  1
  O  O81  1  0.110060  0.329794  0.501806  1
  O  O82  1  0.209614  0.573302  0.463448  1
  O  O83  1  0.989558  0.087441  0.166638  1
  O  O84  1  0.110060  0.829794  0.998194  1
  O  O85  1  0.790386  0.926698  0.963448  1
  O  O86  1  0.610060  0.170206  0.501806  1
  O  O87  1  0.609494  0.821102  0.631531  1
  O  O88  1  0.389940  0.829794  0.498194  1
  O  O89  1  0.390506  0.678898  0.131531  1
  O  O90  1  0.257388  0.489694  0.271145  1
  O  O91  1  0.390506  0.178898  0.368469  1
  O  O92  1  0.596734  0.629303  0.475598  1
  O  O93  1  0.209614  0.073302  0.036552  1
  O  O94  1  0.224353  0.267473  0.179785  1
  O  O95  1  0.096734  0.370697  0.024402  1
