# generated using pymatgen
data_Ho2Cu2O5
_symmetry_space_group_name_H-M   'P 1'
_cell_length_a   3.50962934
_cell_length_b   10.88107360
_cell_length_c   12.51726361
_cell_angle_alpha   90.00000000
_cell_angle_beta   90.00000000
_cell_angle_gamma   90.00000000
_symmetry_Int_Tables_number   1
_chemical_formula_structural   Ho2Cu2O5
_chemical_formula_sum   'Ho8 Cu8 O20'
_cell_volume   478.01596144
_cell_formula_units_Z   4
loop_
 _symmetry_equiv_pos_site_id
 _symmetry_equiv_pos_as_xyz
  1  'x, y, z'
loop_
 _atom_site_type_symbol
 _atom_site_label
 _atom_site_symmetry_multiplicity
 _atom_site_fract_x
 _atom_site_fract_y
 _atom_site_fract_z
 _atom_site_occupancy
  O  O0  1  0.272605  0.923063  0.025884  1
  O  O1  1  0.727395  0.076937  0.525884  1
  O  O2  1  0.227395  0.423063  0.025884  1
  O  O3  1  0.772605  0.576937  0.525884  1
  O  O4  1  0.724592  0.928482  0.235356  1
  O  O5  1  0.275408  0.071518  0.735356  1
  O  O6  1  0.775408  0.428482  0.235356  1
  O  O7  1  0.224592  0.571518  0.735356  1
  O  O8  1  0.155251  0.624719  0.333342  1
  O  O9  1  0.844749  0.375281  0.833342  1
  O  O10  1  0.344749  0.124719  0.333342  1
  O  O11  1  0.655251  0.875281  0.833342  1
  O  O12  1  0.780992  0.822062  0.432162  1
  O  O13  1  0.219008  0.177938  0.932162  1
  O  O14  1  0.719008  0.322062  0.432162  1
  O  O15  1  0.280992  0.677938  0.932162  1
  O  O16  1  0.275032  0.826690  0.641307  1
  O  O17  1  0.724968  0.173310  0.141307  1
  O  O18  1  0.224968  0.326690  0.641307  1
  O  O19  1  0.775032  0.673310  0.141307  1
  Cu  Cu20  1  0.843702  0.761914  0.280565  1
  Cu  Cu21  1  0.156298  0.238086  0.780565  1
  Cu  Cu22  1  0.656298  0.261914  0.280565  1
  Cu  Cu23  1  0.343702  0.738086  0.780565  1
  Cu  Cu24  1  0.839733  0.488477  0.386522  1
  Cu  Cu25  1  0.160267  0.511523  0.886522  1
  Cu  Cu26  1  0.660267  0.988477  0.386522  1
  Cu  Cu27  1  0.339733  0.011523  0.886522  1
  Ho  Ho28  1  0.277511  0.542672  0.169464  1
  Ho  Ho29  1  0.722489  0.457328  0.669464  1
  Ho  Ho30  1  0.222489  0.042672  0.169464  1
  Ho  Ho31  1  0.777511  0.957328  0.669464  1
  Ho  Ho32  1  0.278828  0.707534  0.497098  1
  Ho  Ho33  1  0.721172  0.292466  0.997098  1
  Ho  Ho34  1  0.221172  0.207534  0.497098  1
  Ho  Ho35  1  0.778828  0.792466  0.997098  1
