# generated using pymatgen
data_Ho2Fe14C
_symmetry_space_group_name_H-M   'P 1'
_cell_length_a   8.71613875
_cell_length_b   8.71613875
_cell_length_c   11.69078448
_cell_angle_alpha   90.00000000
_cell_angle_beta   90.00000000
_cell_angle_gamma   90.00000000
_symmetry_Int_Tables_number   1
_chemical_formula_structural   Ho2Fe14C
_chemical_formula_sum   'Ho8 Fe56 C4'
_cell_volume   888.16146114
_cell_formula_units_Z   4
loop_
 _symmetry_equiv_pos_site_id
 _symmetry_equiv_pos_as_xyz
  1  'x, y, z'
loop_
 _atom_site_type_symbol
 _atom_site_label
 _atom_site_symmetry_multiplicity
 _atom_site_fract_x
 _atom_site_fract_y
 _atom_site_fract_z
 _atom_site_occupancy
  Ho  Ho0  1  0.240963  0.759037  0.500000  1
  Ho  Ho1  1  0.144047  0.855953  0.000000  1
  Ho  Ho2  1  0.759037  0.240963  0.500000  1
  Ho  Ho3  1  0.855953  0.144047  0.000000  1
  Ho  Ho4  1  0.259037  0.259037  0.000000  1
  Ho  Ho5  1  0.355953  0.355953  0.500000  1
  Ho  Ho6  1  0.740963  0.740963  0.000000  1
  Ho  Ho7  1  0.644047  0.644047  0.500000  1
  Fe  Fe8  1  0.903044  0.903044  0.203269  1
  Fe  Fe9  1  0.935852  0.725406  0.379704  1
  Fe  Fe10  1  0.725406  0.935852  0.379704  1
  Fe  Fe11  1  0.315705  0.315705  0.754716  1
  Fe  Fe12  1  0.435852  0.774594  0.879704  1
  Fe  Fe13  1  0.596956  0.403044  0.703269  1
  Fe  Fe14  1  0.274594  0.064148  0.620296  1
  Fe  Fe15  1  0.564148  0.225406  0.879704  1
  Fe  Fe16  1  0.964447  0.642216  0.175154  1
  Fe  Fe17  1  0.000000  0.500000  0.000000  1
  Fe  Fe18  1  0.964447  0.642216  0.824846  1
  Fe  Fe19  1  0.225406  0.564148  0.120296  1
  Fe  Fe20  1  0.684295  0.684295  0.754716  1
  Fe  Fe21  1  0.225406  0.564148  0.879704  1
  Fe  Fe22  1  0.642216  0.964447  0.175154  1
  Fe  Fe23  1  0.500000  0.500000  0.108056  1
  Fe  Fe24  1  0.500000  0.000000  0.000000  1
  Fe  Fe25  1  0.403044  0.596956  0.296731  1
  Fe  Fe26  1  0.184295  0.815705  0.254716  1
  Fe  Fe27  1  0.535553  0.142216  0.324846  1
  Fe  Fe28  1  0.096956  0.096956  0.796731  1
  Fe  Fe29  1  0.064148  0.274594  0.620296  1
  Fe  Fe30  1  0.315705  0.315705  0.245284  1
  Fe  Fe31  1  0.815705  0.184295  0.254716  1
  Fe  Fe32  1  0.142216  0.535553  0.675154  1
  Fe  Fe33  1  0.464447  0.857784  0.675154  1
  Fe  Fe34  1  0.184295  0.815705  0.745284  1
  Fe  Fe35  1  0.684295  0.684295  0.245284  1
  Fe  Fe36  1  0.535553  0.142216  0.675154  1
  Fe  Fe37  1  0.725406  0.935852  0.620296  1
  Fe  Fe38  1  0.357784  0.035553  0.175154  1
  Fe  Fe39  1  0.000000  0.500000  0.500000  1
  Fe  Fe40  1  0.274594  0.064148  0.379704  1
  Fe  Fe41  1  0.035553  0.357784  0.175154  1
  Fe  Fe42  1  0.935852  0.725406  0.620296  1
  Fe  Fe43  1  0.500000  0.500000  0.891944  1
  Fe  Fe44  1  0.596956  0.403044  0.296731  1
  Fe  Fe45  1  0.142216  0.535553  0.324846  1
  Fe  Fe46  1  0.435852  0.774594  0.120296  1
  Fe  Fe47  1  0.403044  0.596956  0.703269  1
  Fe  Fe48  1  0.000000  0.000000  0.608056  1
  Fe  Fe49  1  0.064148  0.274594  0.379704  1
  Fe  Fe50  1  0.096956  0.096956  0.203269  1
  Fe  Fe51  1  0.857784  0.464447  0.324846  1
  Fe  Fe52  1  0.035553  0.357784  0.824846  1
  Fe  Fe53  1  0.774594  0.435852  0.879704  1
  Fe  Fe54  1  0.564148  0.225406  0.120296  1
  Fe  Fe55  1  0.000000  0.000000  0.391944  1
  Fe  Fe56  1  0.642216  0.964447  0.824846  1
  Fe  Fe57  1  0.815705  0.184295  0.745284  1
  Fe  Fe58  1  0.857784  0.464447  0.675154  1
  Fe  Fe59  1  0.903044  0.903044  0.796731  1
  Fe  Fe60  1  0.500000  0.000000  0.500000  1
  Fe  Fe61  1  0.774594  0.435852  0.120296  1
  Fe  Fe62  1  0.357784  0.035553  0.824846  1
  Fe  Fe63  1  0.464447  0.857784  0.324846  1
  C  C64  1  0.372556  0.627444  0.000000  1
  C  C65  1  0.127444  0.127444  0.500000  1
  C  C66  1  0.872556  0.872556  0.500000  1
  C  C67  1  0.627444  0.372556  0.000000  1
