# generated using pymatgen
data_Ho2MoO6
_symmetry_space_group_name_H-M   'P 1'
_cell_length_a   5.37794906
_cell_length_b   9.91241094
_cell_length_c   9.91241094
_cell_angle_alpha   68.07136465
_cell_angle_beta   75.02283377
_cell_angle_gamma   75.02283381
_symmetry_Int_Tables_number   1
_chemical_formula_structural   Ho2MoO6
_chemical_formula_sum   'Ho8 Mo4 O24'
_cell_volume   465.73793688
_cell_formula_units_Z   4
loop_
 _symmetry_equiv_pos_site_id
 _symmetry_equiv_pos_as_xyz
  1  'x, y, z'
loop_
 _atom_site_type_symbol
 _atom_site_label
 _atom_site_symmetry_multiplicity
 _atom_site_fract_x
 _atom_site_fract_y
 _atom_site_fract_z
 _atom_site_occupancy
  O  O0  1  0.922176  0.573018  0.609487  1
  O  O1  1  0.577824  0.390513  0.426982  1
  O  O2  1  0.077824  0.426982  0.390513  1
  O  O3  1  0.422176  0.609487  0.573018  1
  O  O4  1  0.918140  0.807003  0.337910  1
  O  O5  1  0.581860  0.662090  0.192997  1
  O  O6  1  0.081860  0.192997  0.662090  1
  O  O7  1  0.418140  0.337910  0.807003  1
  O  O8  1  0.374720  0.883884  0.325655  1
  O  O9  1  0.125280  0.674345  0.116116  1
  O  O10  1  0.625280  0.116116  0.674345  1
  O  O11  1  0.874720  0.325655  0.883884  1
  O  O12  1  0.637115  0.289120  0.184214  1
  O  O13  1  0.862885  0.815786  0.710880  1
  O  O14  1  0.362885  0.710880  0.815786  1
  O  O15  1  0.137115  0.184214  0.289120  1
  O  O16  1  0.514605  0.110101  0.047982  1
  O  O17  1  0.985395  0.952018  0.889899  1
  O  O18  1  0.485395  0.889899  0.952018  1
  O  O19  1  0.014605  0.047982  0.110101  1
  O  O20  1  0.254483  0.432881  0.024915  1
  O  O21  1  0.245517  0.975085  0.567119  1
  O  O22  1  0.745517  0.567119  0.975085  1
  O  O23  1  0.754483  0.024915  0.432881  1
  Mo  Mo24  1  0.061389  0.011476  0.296374  1
  Mo  Mo25  1  0.438611  0.703626  0.988524  1
  Mo  Mo26  1  0.938611  0.988524  0.703626  1
  Mo  Mo27  1  0.561389  0.296374  0.011476  1
  Ho  Ho28  1  0.377844  0.216561  0.447719  1
  Ho  Ho29  1  0.122156  0.552281  0.783439  1
  Ho  Ho30  1  0.622156  0.783439  0.552281  1
  Ho  Ho31  1  0.877844  0.447719  0.216561  1
  Ho  Ho32  1  0.250000  0.136617  0.863383  1
  Ho  Ho33  1  0.750000  0.863383  0.136617  1
  Ho  Ho34  1  0.250000  0.606092  0.393908  1
  Ho  Ho35  1  0.750000  0.393908  0.606092  1
