# generated using pymatgen
data_Ce13Zn58
_symmetry_space_group_name_H-M   'P 1'
_cell_length_a   14.56028337
_cell_length_b   14.56028348
_cell_length_c   14.00747863
_cell_angle_alpha   90.00000000
_cell_angle_beta   90.00000000
_cell_angle_gamma   119.99999972
_symmetry_Int_Tables_number   1
_chemical_formula_structural   Ce13Zn58
_chemical_formula_sum   'Ce26 Zn116'
_cell_volume   2571.75894699
_cell_formula_units_Z   2
loop_
 _symmetry_equiv_pos_site_id
 _symmetry_equiv_pos_as_xyz
  1  'x, y, z'
loop_
 _atom_site_type_symbol
 _atom_site_label
 _atom_site_symmetry_multiplicity
 _atom_site_fract_x
 _atom_site_fract_y
 _atom_site_fract_z
 _atom_site_occupancy
  Ce  Ce0  1  0.794891  0.589781  0.948650  1
  Ce  Ce1  1  0.410219  0.205109  0.551350  1
  Ce  Ce2  1  0.082588  0.541294  0.750000  1
  Ce  Ce3  1  0.205109  0.794891  0.448650  1
  Ce  Ce4  1  0.205109  0.410219  0.448650  1
  Ce  Ce5  1  0.872570  0.127430  0.250000  1
  Ce  Ce6  1  0.205109  0.794891  0.051350  1
  Ce  Ce7  1  0.541294  0.458706  0.250000  1
  Ce  Ce8  1  0.127430  0.872570  0.750000  1
  Ce  Ce9  1  0.127430  0.254860  0.750000  1
  Ce  Ce10  1  0.410219  0.205109  0.948650  1
  Ce  Ce11  1  0.794891  0.589781  0.551350  1
  Ce  Ce12  1  0.872570  0.745140  0.250000  1
  Ce  Ce13  1  0.794891  0.205109  0.551350  1
  Ce  Ce14  1  0.589781  0.794891  0.051350  1
  Ce  Ce15  1  0.917412  0.458706  0.250000  1
  Ce  Ce16  1  0.254860  0.127430  0.250000  1
  Ce  Ce17  1  0.000000  0.000000  0.500000  1
  Ce  Ce18  1  0.458706  0.917412  0.750000  1
  Ce  Ce19  1  0.205109  0.410219  0.051350  1
  Ce  Ce20  1  0.745140  0.872570  0.750000  1
  Ce  Ce21  1  0.541294  0.082588  0.250000  1
  Ce  Ce22  1  0.458706  0.541294  0.750000  1
  Ce  Ce23  1  0.000000  0.000000  0.000000  1
  Ce  Ce24  1  0.589781  0.794891  0.448650  1
  Ce  Ce25  1  0.794891  0.205109  0.948650  1
  Zn  Zn26  1  0.474061  0.237030  0.157854  1
  Zn  Zn27  1  0.964997  0.634420  0.397387  1
  Zn  Zn28  1  0.201482  0.000000  0.000000  1
  Zn  Zn29  1  0.730858  0.461716  0.750000  1
  Zn  Zn30  1  0.333333  0.666667  0.097344  1
  Zn  Zn31  1  0.905328  0.094672  0.843739  1
  Zn  Zn32  1  0.718855  0.634469  0.750000  1
  Zn  Zn33  1  0.035002  0.365580  0.897387  1
  Zn  Zn34  1  0.762970  0.237030  0.342146  1
  Zn  Zn35  1  0.365531  0.281145  0.750000  1
  Zn  Zn36  1  0.128727  0.564363  0.142834  1
  Zn  Zn37  1  0.905328  0.810655  0.843739  1
  Zn  Zn38  1  0.669422  0.634420  0.397387  1
  Zn  Zn39  1  0.964997  0.330578  0.397387  1
  Zn  Zn40  1  0.035002  0.669422  0.602613  1
  Zn  Zn41  1  0.666667  0.333333  0.597344  1
  Zn  Zn42  1  0.000000  0.500000  0.500000  1
  Zn  Zn43  1  0.634420  0.669422  0.602613  1
  Zn  Zn44  1  0.000000  0.798518  0.500000  1
  Zn  Zn45  1  0.398321  0.796642  0.948934  1
  Zn  Zn46  1  0.564363  0.435637  0.857166  1
  Zn  Zn47  1  0.915615  0.634469  0.750000  1
  Zn  Zn48  1  0.094672  0.189345  0.343739  1
  Zn  Zn49  1  0.201482  0.201482  0.000000  1
  Zn  Zn50  1  0.634469  0.718855  0.250000  1
  Zn  Zn51  1  0.269142  0.730858  0.250000  1
  Zn  Zn52  1  0.000000  0.798518  0.000000  1
  Zn  Zn53  1  1.000000  0.201482  0.000000  1
  Zn  Zn54  1  1.000000  0.201482  0.500000  1
  Zn  Zn55  1  0.634420  0.964997  0.602613  1
  Zn  Zn56  1  0.798518  0.798518  0.000000  1
  Zn  Zn57  1  0.669422  0.035002  0.102613  1
  Zn  Zn58  1  0.500000  0.000000  0.500000  1
  Zn  Zn59  1  0.237030  0.474061  0.657854  1
  Zn  Zn60  1  0.333333  0.666667  0.750000  1
  Zn  Zn61  1  0.094672  0.189345  0.156261  1
  Zn  Zn62  1  0.128727  0.564363  0.357166  1
  Zn  Zn63  1  0.237030  0.474061  0.842146  1
  Zn  Zn64  1  0.398321  0.796642  0.551066  1
  Zn  Zn65  1  0.798518  0.798518  0.500000  1
  Zn  Zn66  1  0.461716  0.730858  0.250000  1
  Zn  Zn67  1  0.365580  0.035002  0.397387  1
  Zn  Zn68  1  0.435637  0.871273  0.357166  1
  Zn  Zn69  1  0.718855  0.084385  0.750000  1
  Zn  Zn70  1  0.094672  0.905328  0.156261  1
  Zn  Zn71  1  0.094672  0.905328  0.343739  1
  Zn  Zn72  1  0.634420  0.669422  0.897387  1
  Zn  Zn73  1  0.201482  0.201482  0.500000  1
  Zn  Zn74  1  0.500000  0.500000  0.000000  1
  Zn  Zn75  1  0.435637  0.564363  0.357166  1
  Zn  Zn76  1  0.666667  0.333333  0.902656  1
  Zn  Zn77  1  0.601679  0.398321  0.051066  1
  Zn  Zn78  1  0.905328  0.810655  0.656261  1
  Zn  Zn79  1  0.035002  0.365580  0.602613  1
  Zn  Zn80  1  0.730858  0.269142  0.750000  1
  Zn  Zn81  1  0.905328  0.094672  0.656261  1
  Zn  Zn82  1  0.964997  0.634420  0.102613  1
  Zn  Zn83  1  0.084385  0.365531  0.250000  1
  Zn  Zn84  1  0.601679  0.203358  0.448934  1
  Zn  Zn85  1  0.203358  0.601679  0.948934  1
  Zn  Zn86  1  0.762970  0.525939  0.157854  1
  Zn  Zn87  1  0.564363  0.435637  0.642834  1
  Zn  Zn88  1  0.798518  0.000000  0.500000  1
  Zn  Zn89  1  0.964997  0.330578  0.102613  1
  Zn  Zn90  1  0.500000  0.000000  0.000000  1
  Zn  Zn91  1  0.365580  0.330578  0.397387  1
  Zn  Zn92  1  0.669422  0.634420  0.102613  1
  Zn  Zn93  1  0.333333  0.666667  0.402656  1
  Zn  Zn94  1  0.000000  0.000000  0.250000  1
  Zn  Zn95  1  0.762970  0.525939  0.342146  1
  Zn  Zn96  1  0.810655  0.905328  0.156261  1
  Zn  Zn97  1  0.915615  0.281145  0.750000  1
  Zn  Zn98  1  0.564363  0.128727  0.642834  1
  Zn  Zn99  1  0.330578  0.964997  0.897387  1
  Zn  Zn100  1  0.435637  0.564363  0.142834  1
  Zn  Zn101  1  0.035002  0.669422  0.897387  1
  Zn  Zn102  1  0.669422  0.035002  0.397387  1
  Zn  Zn103  1  0.601679  0.398321  0.448934  1
  Zn  Zn104  1  0.796642  0.398321  0.448934  1
  Zn  Zn105  1  0.871273  0.435637  0.857166  1
  Zn  Zn106  1  0.365531  0.084385  0.750000  1
  Zn  Zn107  1  0.330578  0.365580  0.897387  1
  Zn  Zn108  1  0.237030  0.762970  0.657854  1
  Zn  Zn109  1  0.084385  0.718855  0.250000  1
  Zn  Zn110  1  0.525939  0.762970  0.842146  1
  Zn  Zn111  1  0.189345  0.094672  0.843739  1
  Zn  Zn112  1  0.810655  0.905328  0.343739  1
  Zn  Zn113  1  0.666667  0.333333  0.250000  1
  Zn  Zn114  1  0.398321  0.601679  0.948934  1
  Zn  Zn115  1  0.000000  0.000000  0.750000  1
  Zn  Zn116  1  0.203358  0.601679  0.551066  1
  Zn  Zn117  1  0.398321  0.601679  0.551066  1
  Zn  Zn118  1  0.189345  0.094672  0.656261  1
  Zn  Zn119  1  0.525939  0.762970  0.657854  1
  Zn  Zn120  1  0.762970  0.237030  0.157854  1
  Zn  Zn121  1  0.500000  0.500000  0.500000  1
  Zn  Zn122  1  0.796642  0.398321  0.051066  1
  Zn  Zn123  1  0.237030  0.762970  0.842146  1
  Zn  Zn124  1  0.634469  0.915615  0.250000  1
  Zn  Zn125  1  0.330578  0.365580  0.602613  1
  Zn  Zn126  1  0.601679  0.203358  0.051066  1
  Zn  Zn127  1  0.871273  0.435637  0.642834  1
  Zn  Zn128  1  0.201482  0.000000  0.500000  1
  Zn  Zn129  1  0.365580  0.035002  0.102613  1
  Zn  Zn130  1  0.330578  0.964997  0.602613  1
  Zn  Zn131  1  0.564363  0.128727  0.857166  1
  Zn  Zn132  1  0.281145  0.915615  0.250000  1
  Zn  Zn133  1  0.281145  0.365531  0.250000  1
  Zn  Zn134  1  0.000000  0.500000  0.000000  1
  Zn  Zn135  1  0.474061  0.237030  0.342146  1
  Zn  Zn136  1  0.634420  0.964997  0.897387  1
  Zn  Zn137  1  0.798518  0.000000  0.000000  1
  Zn  Zn138  1  0.365580  0.330578  0.102613  1
  Zn  Zn139  1  0.269142  0.538284  0.250000  1
  Zn  Zn140  1  0.435637  0.871273  0.142834  1
  Zn  Zn141  1  0.538284  0.269142  0.750000  1
