# generated using pymatgen
data_Ho4NiB14
_symmetry_space_group_name_H-M   'P 1'
_cell_length_a   7.21023839
_cell_length_b   7.21023839
_cell_length_c   7.47217962
_cell_angle_alpha   90.00000000
_cell_angle_beta   90.00000000
_cell_angle_gamma   90.00000000
_symmetry_Int_Tables_number   1
_chemical_formula_structural   Ho4NiB14
_chemical_formula_sum   'Ho8 Ni2 B28'
_cell_volume   388.46021925
_cell_formula_units_Z   2
loop_
 _symmetry_equiv_pos_site_id
 _symmetry_equiv_pos_as_xyz
  1  'x, y, z'
loop_
 _atom_site_type_symbol
 _atom_site_label
 _atom_site_symmetry_multiplicity
 _atom_site_fract_x
 _atom_site_fract_y
 _atom_site_fract_z
 _atom_site_occupancy
  Ho  Ho0  1  0.193734  0.331752  0.000000  1
  Ho  Ho1  1  0.668248  0.193734  0.000000  1
  Ho  Ho2  1  0.331752  0.806266  0.000000  1
  Ho  Ho3  1  0.693734  0.168248  0.500000  1
  Ho  Ho4  1  0.306266  0.831752  0.500000  1
  Ho  Ho5  1  0.806266  0.668248  0.000000  1
  Ho  Ho6  1  0.831752  0.693734  0.500000  1
  Ho  Ho7  1  0.168248  0.306266  0.500000  1
  Ni  Ni8  1  0.000000  0.000000  0.000000  1
  Ni  Ni9  1  0.500000  0.500000  0.500000  1
  B  B10  1  0.174689  0.039361  0.232291  1
  B  B11  1  0.960639  0.174689  0.232291  1
  B  B12  1  0.039361  0.825311  0.232291  1
  B  B13  1  0.674689  0.460639  0.267709  1
  B  B14  1  0.325311  0.539361  0.267709  1
  B  B15  1  0.825311  0.960639  0.232291  1
  B  B16  1  0.539361  0.674689  0.267709  1
  B  B17  1  0.460639  0.325311  0.267709  1
  B  B18  1  0.825311  0.960639  0.767709  1
  B  B19  1  0.039361  0.825311  0.767709  1
  B  B20  1  0.960639  0.174689  0.767709  1
  B  B21  1  0.325311  0.539361  0.732291  1
  B  B22  1  0.674689  0.460639  0.732291  1
  B  B23  1  0.174689  0.039361  0.767709  1
  B  B24  1  0.460639  0.325311  0.732291  1
  B  B25  1  0.539361  0.674689  0.732291  1
  B  B26  1  0.089279  0.589279  0.250000  1
  B  B27  1  0.410721  0.089279  0.250000  1
  B  B28  1  0.589279  0.910721  0.250000  1
  B  B29  1  0.910721  0.410721  0.250000  1
  B  B30  1  0.910721  0.410721  0.750000  1
  B  B31  1  0.589279  0.910721  0.750000  1
  B  B32  1  0.410721  0.089279  0.750000  1
  B  B33  1  0.089279  0.589279  0.750000  1
  B  B34  1  0.000000  0.000000  0.388850  1
  B  B35  1  0.500000  0.500000  0.111150  1
  B  B36  1  0.000000  0.000000  0.611150  1
  B  B37  1  0.500000  0.500000  0.888850  1
