# generated using pymatgen
data_Ho2(Ni5B3)3
_symmetry_space_group_name_H-M   'P 1'
_cell_length_a   9.81824439
_cell_length_b   9.81824392
_cell_length_c   11.23353938
_cell_angle_alpha   90.00000000
_cell_angle_beta   90.00000000
_cell_angle_gamma   107.66972819
_symmetry_Int_Tables_number   1
_chemical_formula_structural   Ho2(Ni5B3)3
_chemical_formula_sum   'Ho8 Ni60 B36'
_cell_volume   1031.80121690
_cell_formula_units_Z   4
loop_
 _symmetry_equiv_pos_site_id
 _symmetry_equiv_pos_as_xyz
  1  'x, y, z'
loop_
 _atom_site_type_symbol
 _atom_site_label
 _atom_site_symmetry_multiplicity
 _atom_site_fract_x
 _atom_site_fract_y
 _atom_site_fract_z
 _atom_site_occupancy
  B  B0  1  0.134848  0.865152  0.000000  1
  B  B1  1  0.365152  0.634848  0.500000  1
  B  B2  1  0.865152  0.134848  0.000000  1
  B  B3  1  0.634848  0.365152  0.500000  1
  B  B4  1  0.043875  0.043875  0.172513  1
  B  B5  1  0.456125  0.456125  0.672513  1
  B  B6  1  0.543875  0.543875  0.327487  1
  B  B7  1  0.956125  0.956125  0.827487  1
  B  B8  1  0.441433  0.441433  0.198906  1
  B  B9  1  0.058567  0.058567  0.698906  1
  B  B10  1  0.941433  0.941433  0.301094  1
  B  B11  1  0.558567  0.558567  0.801094  1
  B  B12  1  0.378286  0.120243  0.243729  1
  B  B13  1  0.121714  0.379757  0.743729  1
  B  B14  1  0.620243  0.878286  0.256271  1
  B  B15  1  0.879757  0.621714  0.756271  1
  B  B16  1  0.621714  0.879757  0.756271  1
  B  B17  1  0.878286  0.620243  0.256271  1
  B  B18  1  0.379757  0.121714  0.743729  1
  B  B19  1  0.120243  0.378286  0.243729  1
  B  B20  1  0.202526  0.905653  0.449026  1
  B  B21  1  0.297474  0.594347  0.949026  1
  B  B22  1  0.405653  0.702526  0.050974  1
  B  B23  1  0.094347  0.797474  0.550974  1
  B  B24  1  0.797474  0.094347  0.550974  1
  B  B25  1  0.702526  0.405653  0.050974  1
  B  B26  1  0.594347  0.297474  0.949026  1
  B  B27  1  0.905653  0.202526  0.449026  1
  B  B28  1  0.449842  0.049224  0.099561  1
  B  B29  1  0.050158  0.450776  0.599561  1
  B  B30  1  0.549224  0.949842  0.400439  1
  B  B31  1  0.950776  0.550158  0.900439  1
  B  B32  1  0.550158  0.950776  0.900439  1
  B  B33  1  0.949842  0.549224  0.400439  1
  B  B34  1  0.450776  0.050158  0.599561  1
  B  B35  1  0.049224  0.449842  0.099561  1
  Ni  Ni36  1  0.000000  0.000000  0.000000  1
  Ni  Ni37  1  0.500000  0.500000  0.500000  1
  Ni  Ni38  1  0.507897  0.315390  0.339688  1
  Ni  Ni39  1  0.992103  0.184610  0.839688  1
  Ni  Ni40  1  0.815390  0.007897  0.160312  1
  Ni  Ni41  1  0.684610  0.492103  0.660312  1
  Ni  Ni42  1  0.492103  0.684610  0.660312  1
  Ni  Ni43  1  0.007897  0.815390  0.160312  1
  Ni  Ni44  1  0.184610  0.992103  0.839688  1
  Ni  Ni45  1  0.315390  0.507897  0.339688  1
  Ni  Ni46  1  0.500000  0.500000  0.000000  1
  Ni  Ni47  1  0.000000  0.000000  0.500000  1
  Ni  Ni48  1  0.568275  0.068275  0.250000  1
  Ni  Ni49  1  0.931725  0.431725  0.750000  1
  Ni  Ni50  1  0.431725  0.931725  0.750000  1
  Ni  Ni51  1  0.068275  0.568275  0.250000  1
  Ni  Ni52  1  0.264840  0.264840  0.211702  1
  Ni  Ni53  1  0.235160  0.235160  0.711702  1
  Ni  Ni54  1  0.764840  0.764840  0.288298  1
  Ni  Ni55  1  0.735160  0.735160  0.788298  1
  Ni  Ni56  1  0.662429  0.135433  0.029847  1
  Ni  Ni57  1  0.837571  0.364567  0.529847  1
  Ni  Ni58  1  0.635433  0.162429  0.470153  1
  Ni  Ni59  1  0.864567  0.337571  0.970153  1
  Ni  Ni60  1  0.337571  0.864567  0.970153  1
  Ni  Ni61  1  0.162429  0.635433  0.470153  1
  Ni  Ni62  1  0.364567  0.837571  0.529847  1
  Ni  Ni63  1  0.135433  0.662429  0.029847  1
  Ni  Ni64  1  0.167429  0.009735  0.306717  1
  Ni  Ni65  1  0.332571  0.490265  0.806717  1
  Ni  Ni66  1  0.509735  0.667429  0.193283  1
  Ni  Ni67  1  0.990265  0.832571  0.693283  1
  Ni  Ni68  1  0.832571  0.990265  0.693283  1
  Ni  Ni69  1  0.667429  0.509735  0.193283  1
  Ni  Ni70  1  0.490265  0.332571  0.806717  1
  Ni  Ni71  1  0.009735  0.167429  0.306717  1
  Ni  Ni72  1  0.392327  0.052459  0.414463  1
  Ni  Ni73  1  0.107673  0.447541  0.914463  1
  Ni  Ni74  1  0.552459  0.892327  0.085537  1
  Ni  Ni75  1  0.947541  0.607673  0.585537  1
  Ni  Ni76  1  0.607673  0.947541  0.585537  1
  Ni  Ni77  1  0.892327  0.552459  0.085537  1
  Ni  Ni78  1  0.447541  0.107673  0.914463  1
  Ni  Ni79  1  0.052459  0.392327  0.414463  1
  Ni  Ni80  1  0.504369  0.271730  0.117494  1
  Ni  Ni81  1  0.995631  0.228270  0.617494  1
  Ni  Ni82  1  0.771730  0.004369  0.382506  1
  Ni  Ni83  1  0.728270  0.495631  0.882506  1
  Ni  Ni84  1  0.495631  0.728270  0.882506  1
  Ni  Ni85  1  0.004369  0.771730  0.382506  1
  Ni  Ni86  1  0.228270  0.995631  0.617494  1
  Ni  Ni87  1  0.271730  0.504369  0.117494  1
  Ni  Ni88  1  0.242218  0.028730  0.097445  1
  Ni  Ni89  1  0.257782  0.471270  0.597445  1
  Ni  Ni90  1  0.528730  0.742218  0.402555  1
  Ni  Ni91  1  0.971270  0.757782  0.902555  1
  Ni  Ni92  1  0.757782  0.971270  0.902555  1
  Ni  Ni93  1  0.742218  0.528730  0.402555  1
  Ni  Ni94  1  0.471270  0.257782  0.597445  1
  Ni  Ni95  1  0.028730  0.242218  0.097445  1
  Ho  Ho96  1  0.307523  0.807523  0.250000  1
  Ho  Ho97  1  0.192477  0.692477  0.750000  1
  Ho  Ho98  1  0.692477  0.192477  0.750000  1
  Ho  Ho99  1  0.807523  0.307523  0.250000  1
  Ho  Ho100  1  0.239095  0.239095  0.459053  1
  Ho  Ho101  1  0.260905  0.260905  0.959053  1
  Ho  Ho102  1  0.739095  0.739095  0.040947  1
  Ho  Ho103  1  0.760905  0.760905  0.540947  1
