# generated using pymatgen
data_Ho2Ti2O7
_symmetry_space_group_name_H-M   'P 1'
_cell_length_a   7.53884836
_cell_length_b   13.14851034
_cell_length_c   5.34150861
_cell_angle_alpha   90.00000000
_cell_angle_beta   90.00000000
_cell_angle_gamma   98.34879219
_symmetry_Int_Tables_number   1
_chemical_formula_structural   Ho2Ti2O7
_chemical_formula_sum   'Ho8 Ti8 O28'
_cell_volume   523.86392847
_cell_formula_units_Z   4
loop_
 _symmetry_equiv_pos_site_id
 _symmetry_equiv_pos_as_xyz
  1  'x, y, z'
loop_
 _atom_site_type_symbol
 _atom_site_label
 _atom_site_symmetry_multiplicity
 _atom_site_fract_x
 _atom_site_fract_y
 _atom_site_fract_z
 _atom_site_occupancy
  Ho  Ho0  1  0.233044  0.921227  0.772551  1
  Ho  Ho1  1  0.142471  0.563672  0.359328  1
  Ho  Ho2  1  0.285339  0.133183  0.248121  1
  Ho  Ho3  1  0.354430  0.386478  0.779357  1
  Ho  Ho4  1  0.645570  0.613522  0.279357  1
  Ho  Ho5  1  0.714661  0.866817  0.748121  1
  Ho  Ho6  1  0.857529  0.436328  0.859328  1
  Ho  Ho7  1  0.766956  0.078773  0.272551  1
  Ti  Ti8  1  0.070322  0.321050  0.284200  1
  Ti  Ti9  1  0.030856  0.120772  0.770497  1
  Ti  Ti10  1  0.410286  0.672328  0.795972  1
  Ti  Ti11  1  0.470830  0.875998  0.269217  1
  Ti  Ti12  1  0.529170  0.124002  0.769217  1
  Ti  Ti13  1  0.589714  0.327672  0.295972  1
  Ti  Ti14  1  0.969144  0.879228  0.270497  1
  Ti  Ti15  1  0.929678  0.678950  0.784200  1
  O  O16  1  0.011895  0.178957  0.433826  1
  O  O17  1  0.074436  0.408441  0.563255  1
  O  O18  1  0.172651  0.686785  0.673669  1
  O  O19  1  0.221055  0.883612  0.349754  1
  O  O20  1  0.137211  0.431713  0.066391  1
  O  O21  1  0.061063  0.024781  0.043053  1
  O  O22  1  0.129764  0.232311  0.952608  1
  O  O23  1  0.366408  0.614971  0.095042  1
  O  O24  1  0.424741  0.822259  0.932108  1
  O  O25  1  0.327125  0.306135  0.378647  1
  O  O26  1  0.271436  0.087297  0.651317  1
  O  O27  1  0.410984  0.552970  0.586868  1
  O  O28  1  0.547830  0.974007  0.540763  1
  O  O29  1  0.515199  0.765232  0.451799  1
  O  O30  1  0.484801  0.234768  0.951799  1
  O  O31  1  0.452170  0.025993  0.040763  1
  O  O32  1  0.589016  0.447030  0.086868  1
  O  O33  1  0.728564  0.912703  0.151317  1
  O  O34  1  0.672875  0.693865  0.878647  1
  O  O35  1  0.575259  0.177741  0.432108  1
  O  O36  1  0.633592  0.385029  0.595042  1
  O  O37  1  0.870236  0.767689  0.452608  1
  O  O38  1  0.938937  0.975219  0.543053  1
  O  O39  1  0.862789  0.568287  0.566391  1
  O  O40  1  0.778945  0.116388  0.849754  1
  O  O41  1  0.827349  0.313215  0.173669  1
  O  O42  1  0.925564  0.591559  0.063255  1
  O  O43  1  0.988105  0.821043  0.933826  1
