# generated using pymatgen
data_Ho2WO6
_symmetry_space_group_name_H-M   'P 1'
_cell_length_a   10.01150039
_cell_length_b   9.86348269
_cell_length_c   10.01134733
_cell_angle_alpha   76.58890369
_cell_angle_beta   112.82835757
_cell_angle_gamma   148.55568010
_symmetry_Int_Tables_number   1
_chemical_formula_structural   Ho2WO6
_chemical_formula_sum   'Ho8 W4 O24'
_cell_volume   465.13042762
_cell_formula_units_Z   4
loop_
 _symmetry_equiv_pos_site_id
 _symmetry_equiv_pos_as_xyz
  1  'x, y, z'
loop_
 _atom_site_type_symbol
 _atom_site_label
 _atom_site_symmetry_multiplicity
 _atom_site_fract_x
 _atom_site_fract_y
 _atom_site_fract_z
 _atom_site_occupancy
  Ho  Ho0  1  0.355096  0.249990  0.105096  1
  Ho  Ho1  1  0.884216  0.250011  0.634205  1
  Ho  Ho2  1  0.902059  0.957962  0.284675  1
  Ho  Ho3  1  0.173297  0.457970  0.055901  1
  Ho  Ho4  1  0.826702  0.542029  0.944097  1
  Ho  Ho5  1  0.097935  0.042029  0.715320  1
  Ho  Ho6  1  0.115784  0.749991  0.365793  1
  Ho  Ho7  1  0.644899  0.750004  0.894904  1
  W  W8  1  0.632766  0.127241  0.199169  1
  W  W9  1  0.571917  0.372748  0.505524  1
  W  W10  1  0.428090  0.627260  0.494481  1
  W  W11  1  0.367237  0.872765  0.800829  1
  O  O12  1  0.996695  0.104379  0.074986  1
  O  O13  1  0.800162  0.273555  0.060281  1
  O  O14  1  0.738225  0.426850  0.159470  1
  O  O15  1  0.869774  0.325234  0.389835  1
  O  O16  1  0.564604  0.174769  0.544530  1
  O  O17  1  0.232581  0.073104  0.311379  1
  O  O18  1  0.529391  0.604370  0.107681  1
  O  O19  1  0.765804  0.590087  0.379294  1
  O  O20  1  0.710830  0.090146  0.824280  1
  O  O21  1  0.833454  0.617245  0.684569  1
  O  O22  1  0.432681  0.117255  0.783792  1
  O  O23  1  0.286728  0.226456  0.526603  1
  O  O24  1  0.713261  0.773527  0.473395  1
  O  O25  1  0.567319  0.882746  0.216207  1
  O  O26  1  0.166550  0.382755  0.315440  1
  O  O27  1  0.289173  0.909859  0.175719  1
  O  O28  1  0.234196  0.409912  0.620706  1
  O  O29  1  0.470602  0.395624  0.892314  1
  O  O30  1  0.767420  0.926895  0.688619  1
  O  O31  1  0.435396  0.825234  0.455473  1
  O  O32  1  0.130225  0.674766  0.610165  1
  O  O33  1  0.261774  0.573153  0.840528  1
  O  O34  1  0.199857  0.726462  0.939725  1
  O  O35  1  0.003299  0.895619  0.925013  1
