# generated using pymatgen
data_Ho4Zr3O12
_symmetry_space_group_name_H-M   'P 1'
_cell_length_a   6.45775810
_cell_length_b   6.40528061
_cell_length_c   12.87438040
_cell_angle_alpha   99.41934222
_cell_angle_beta   99.13771961
_cell_angle_gamma   99.29777109
_symmetry_Int_Tables_number   1
_chemical_formula_structural   Ho4Zr3O12
_chemical_formula_sum   'Ho8 Zr6 O24'
_cell_volume   508.97814009
_cell_formula_units_Z   2
loop_
 _symmetry_equiv_pos_site_id
 _symmetry_equiv_pos_as_xyz
  1  'x, y, z'
loop_
 _atom_site_type_symbol
 _atom_site_label
 _atom_site_symmetry_multiplicity
 _atom_site_fract_x
 _atom_site_fract_y
 _atom_site_fract_z
 _atom_site_occupancy
  Ho  Ho0  1  0.136663  0.610512  0.653324  1
  Ho  Ho1  1  0.390497  0.688419  0.930908  1
  Ho  Ho2  1  0.389832  0.700699  0.430927  1
  Ho  Ho3  1  0.307842  0.140269  0.303260  1
  Ho  Ho4  1  0.609503  0.311581  0.569092  1
  Ho  Ho5  1  0.692158  0.859731  0.196740  1
  Ho  Ho6  1  0.863337  0.389488  0.846676  1
  Ho  Ho7  1  0.610168  0.299301  0.069073  1
  Zr  Zr8  1  0.006594  0.007906  0.502832  1
  Zr  Zr9  1  0.144058  0.608422  0.157000  1
  Zr  Zr10  1  0.993406  0.992094  0.997168  1
  Zr  Zr11  1  0.323159  0.144976  0.803776  1
  Zr  Zr12  1  0.676841  0.855024  0.696224  1
  Zr  Zr13  1  0.855942  0.391578  0.343000  1
  O  O14  1  0.056051  0.679695  0.961499  1
  O  O15  1  0.105975  0.963212  0.660976  1
  O  O16  1  0.038966  0.682289  0.452930  1
  O  O17  1  0.079683  0.924401  0.155703  1
  O  O18  1  0.181452  0.410718  0.786710  1
  O  O19  1  0.307153  0.076961  0.958563  1
  O  O20  1  0.424917  0.826192  0.784384  1
  O  O21  1  0.170196  0.431999  0.286653  1
  O  O22  1  0.433680  0.592700  0.591950  1
  O  O23  1  0.318356  0.076766  0.472077  1
  O  O24  1  0.407692  0.814829  0.280789  1
  O  O25  1  0.566320  0.407300  0.908050  1
  O  O26  1  0.416461  0.573766  0.091415  1
  O  O27  1  0.575083  0.173808  0.715616  1
  O  O28  1  0.692847  0.923039  0.541437  1
  O  O29  1  0.583539  0.426234  0.408585  1
  O  O30  1  0.818548  0.589282  0.713290  1
  O  O31  1  0.592308  0.185171  0.219211  1
  O  O32  1  0.681644  0.923234  0.027923  1
  O  O33  1  0.829804  0.568001  0.213347  1
  O  O34  1  0.894025  0.036788  0.839024  1
  O  O35  1  0.943949  0.320305  0.538501  1
  O  O36  1  0.920317  0.075599  0.344297  1
  O  O37  1  0.961034  0.317711  0.047070  1
