# generated using pymatgen
data_CeAg3
_symmetry_space_group_name_H-M   'P 1'
_cell_length_a   6.56161402
_cell_length_b   6.55742428
_cell_length_c   4.89837978
_cell_angle_alpha   90.00000000
_cell_angle_beta   90.00000000
_cell_angle_gamma   119.96094896
_symmetry_Int_Tables_number   1
_chemical_formula_structural   CeAg3
_chemical_formula_sum   'Ce2 Ag6'
_cell_volume   182.59875507
_cell_formula_units_Z   2
loop_
 _symmetry_equiv_pos_site_id
 _symmetry_equiv_pos_as_xyz
  1  'x, y, z'
loop_
 _atom_site_type_symbol
 _atom_site_label
 _atom_site_symmetry_multiplicity
 _atom_site_fract_x
 _atom_site_fract_y
 _atom_site_fract_z
 _atom_site_occupancy
  Ce  Ce0  1  0.333208  0.666602  0.750001  1
  Ce  Ce1  1  0.666615  0.333460  0.250001  1
  Ag  Ag2  1  0.150676  0.301447  0.250001  1
  Ag  Ag3  1  0.698620  0.849382  0.250001  1
  Ag  Ag4  1  0.150784  0.849241  0.250001  1
  Ag  Ag5  1  0.849312  0.698593  0.750001  1
  Ag  Ag6  1  0.301412  0.150641  0.750001  1
  Ag  Ag7  1  0.849372  0.150631  0.750001  1
