# generated using pymatgen
data_Ho2Zr2O7
_symmetry_space_group_name_H-M   'P 1'
_cell_length_a   7.85996664
_cell_length_b   13.78881752
_cell_length_c   5.51541035
_cell_angle_alpha   90.00000000
_cell_angle_beta   90.00000000
_cell_angle_gamma   98.44868464
_symmetry_Int_Tables_number   1
_chemical_formula_structural   Ho2Zr2O7
_chemical_formula_sum   'Ho8 Zr8 O28'
_cell_volume   591.27125645
_cell_formula_units_Z   4
loop_
 _symmetry_equiv_pos_site_id
 _symmetry_equiv_pos_as_xyz
  1  'x, y, z'
loop_
 _atom_site_type_symbol
 _atom_site_label
 _atom_site_symmetry_multiplicity
 _atom_site_fract_x
 _atom_site_fract_y
 _atom_site_fract_z
 _atom_site_occupancy
  Ho  Ho0  1  0.137400  0.559023  0.330211  1
  Ho  Ho1  1  0.236539  0.926876  0.778638  1
  Ho  Ho2  1  0.286762  0.134116  0.242204  1
  Ho  Ho3  1  0.361962  0.399078  0.758153  1
  Ho  Ho4  1  0.638038  0.600922  0.258153  1
  Ho  Ho5  1  0.713238  0.865884  0.742204  1
  Ho  Ho6  1  0.763461  0.073124  0.278638  1
  Ho  Ho7  1  0.862600  0.440977  0.830211  1
  Zr  Zr8  1  0.074514  0.319631  0.266170  1
  Zr  Zr9  1  0.027418  0.118102  0.762898  1
  Zr  Zr10  1  0.410501  0.673169  0.777510  1
  Zr  Zr11  1  0.468208  0.875890  0.264305  1
  Zr  Zr12  1  0.531792  0.124110  0.764305  1
  Zr  Zr13  1  0.589499  0.326831  0.277510  1
  Zr  Zr14  1  0.972582  0.881898  0.262898  1
  Zr  Zr15  1  0.925486  0.680369  0.766170  1
  O  O16  1  0.078059  0.417561  0.554660  1
  O  O17  1  0.996756  0.173508  0.417546  1
  O  O18  1  0.169982  0.675546  0.633175  1
  O  O19  1  0.221841  0.883692  0.385632  1
  O  O20  1  0.152276  0.435275  0.044700  1
  O  O21  1  0.076663  0.021930  0.051292  1
  O  O22  1  0.139989  0.229961  0.966597  1
  O  O23  1  0.365410  0.620541  0.112094  1
  O  O24  1  0.415501  0.827292  0.912927  1
  O  O25  1  0.271130  0.082785  0.631485  1
  O  O26  1  0.323764  0.298433  0.406268  1
  O  O27  1  0.420158  0.546632  0.575185  1
  O  O28  1  0.562628  0.976947  0.546864  1
  O  O29  1  0.526648  0.766496  0.473978  1
  O  O30  1  0.473352  0.233504  0.973978  1
  O  O31  1  0.437372  0.023053  0.046864  1
  O  O32  1  0.579842  0.453368  0.075185  1
  O  O33  1  0.676236  0.701567  0.906268  1
  O  O34  1  0.728870  0.917215  0.131485  1
  O  O35  1  0.584499  0.172708  0.412927  1
  O  O36  1  0.634590  0.379459  0.612094  1
  O  O37  1  0.860011  0.770039  0.466597  1
  O  O38  1  0.923337  0.978070  0.551292  1
  O  O39  1  0.847724  0.564725  0.544700  1
  O  O40  1  0.778159  0.116308  0.885632  1
  O  O41  1  0.830018  0.324454  0.133175  1
  O  O42  1  0.003244  0.826492  0.917546  1
  O  O43  1  0.921941  0.582439  0.054660  1
