# generated using pymatgen
data_La5Mn6O18
_symmetry_space_group_name_H-M   'P 1'
_cell_length_a   16.49531274
_cell_length_b   14.53276313
_cell_length_c   9.48684645
_cell_angle_alpha   29.59082711
_cell_angle_beta   55.23648674
_cell_angle_gamma   41.14560622
_symmetry_Int_Tables_number   1
_chemical_formula_structural   La5Mn6O18
_chemical_formula_sum   'La10 Mn12 O36'
_cell_volume   713.40467188
_cell_formula_units_Z   2
loop_
 _symmetry_equiv_pos_site_id
 _symmetry_equiv_pos_as_xyz
  1  'x, y, z'
loop_
 _atom_site_type_symbol
 _atom_site_label
 _atom_site_symmetry_multiplicity
 _atom_site_fract_x
 _atom_site_fract_y
 _atom_site_fract_z
 _atom_site_occupancy
  La  La0  1  0.077172  0.507086  0.742286  1
  La  La1  1  0.246829  0.502910  0.250065  1
  La  La2  1  0.087386  0.995775  0.245426  1
  La  La3  1  0.422549  0.486138  0.767500  1
  La  La4  1  0.577451  0.513862  0.232500  1
  La  La5  1  0.416594  0.992688  0.264793  1
  La  La6  1  0.753171  0.497090  0.749935  1
  La  La7  1  0.922828  0.492914  0.257714  1
  La  La8  1  0.583406  0.007312  0.735207  1
  La  La9  1  0.912614  0.004225  0.754574  1
  Mn  Mn10  1  0.000000  0.000000  0.000000  1
  Mn  Mn11  1  0.332095  0.000656  0.997831  1
  Mn  Mn12  1  0.168752  0.493590  0.006940  1
  Mn  Mn13  1  0.667905  0.999344  0.002169  1
  Mn  Mn14  1  0.333836  0.502451  0.494323  1
  Mn  Mn15  1  0.500000  0.500000  0.000000  1
  Mn  Mn16  1  0.166780  0.999405  0.502874  1
  Mn  Mn17  1  0.666164  0.497549  0.505677  1
  Mn  Mn18  1  0.831248  0.506410  0.993060  1
  Mn  Mn19  1  0.500000  0.000000  0.500000  1
  Mn  Mn20  1  0.000000  0.500000  0.500000  1
  Mn  Mn21  1  0.833220  0.000595  0.497126  1
  O  O22  1  0.228691  0.058095  0.191884  1
  O  O23  1  0.136808  0.289617  0.220210  1
  O  O24  1  0.010717  0.238801  0.751516  1
  O  O25  1  0.061852  0.561745  0.186385  1
  O  O26  1  0.327253  0.246891  0.267071  1
  O  O27  1  0.171752  0.288429  0.698211  1
  O  O28  1  0.557919  0.045677  0.202792  1
  O  O29  1  0.157226  0.720028  0.312063  1
  O  O30  1  0.474018  0.275909  0.250481  1
  O  O31  1  0.008274  0.782414  0.690478  1
  O  O32  1  0.359760  0.220642  0.758559  1
  O  O33  1  0.267061  0.444992  0.805290  1
  O  O34  1  0.405722  0.519942  0.231891  1
  O  O35  1  0.315967  0.755415  0.283557  1
  O  O36  1  0.653584  0.241364  0.299886  1
  O  O37  1  0.192370  0.726165  0.742637  1
  O  O38  1  0.510924  0.271992  0.697075  1
  O  O39  1  0.092432  0.947505  0.800289  1
  O  O40  1  0.907568  0.052495  0.199711  1
  O  O41  1  0.489076  0.728008  0.302925  1
  O  O42  1  0.807630  0.273835  0.257363  1
  O  O43  1  0.346416  0.758636  0.700114  1
  O  O44  1  0.684033  0.244585  0.716443  1
  O  O45  1  0.594278  0.480058  0.768109  1
  O  O46  1  0.732939  0.555008  0.194710  1
  O  O47  1  0.640240  0.779358  0.241441  1
  O  O48  1  0.991726  0.217586  0.309522  1
  O  O49  1  0.525982  0.724091  0.749519  1
  O  O50  1  0.842774  0.279972  0.687937  1
  O  O51  1  0.442081  0.954323  0.797208  1
  O  O52  1  0.828248  0.711571  0.301789  1
  O  O53  1  0.672747  0.753109  0.732929  1
  O  O54  1  0.938148  0.438255  0.813615  1
  O  O55  1  0.989283  0.761199  0.248484  1
  O  O56  1  0.863192  0.710383  0.779790  1
  O  O57  1  0.771309  0.941905  0.808116  1
