# generated using pymatgen
data_La10Mn9O30
_symmetry_space_group_name_H-M   'P 1'
_cell_length_a   9.65979624
_cell_length_b   7.87187838
_cell_length_c   9.49674464
_cell_angle_alpha   113.26092808
_cell_angle_beta   98.66937143
_cell_angle_gamma   66.39171673
_symmetry_Int_Tables_number   1
_chemical_formula_structural   La10Mn9O30
_chemical_formula_sum   'La10 Mn9 O30'
_cell_volume   607.89059152
_cell_formula_units_Z   1
loop_
 _symmetry_equiv_pos_site_id
 _symmetry_equiv_pos_as_xyz
  1  'x, y, z'
loop_
 _atom_site_type_symbol
 _atom_site_label
 _atom_site_symmetry_multiplicity
 _atom_site_fract_x
 _atom_site_fract_y
 _atom_site_fract_z
 _atom_site_occupancy
  La  La0  1  0.907258  0.433493  0.289412  1
  La  La1  1  0.710376  0.857657  0.901613  1
  La  La2  1  0.908959  0.955067  0.279886  1
  La  La3  1  0.710685  0.336557  0.907348  1
  La  La4  1  0.499700  0.249791  0.500068  1
  La  La5  1  0.500300  0.750209  0.499932  1
  La  La6  1  0.091041  0.044933  0.720114  1
  La  La7  1  0.289315  0.663443  0.092652  1
  La  La8  1  0.289624  0.142343  0.098387  1
  La  La9  1  0.092742  0.566507  0.710588  1
  Mn  Mn10  1  0.801343  0.399241  0.599572  1
  Mn  Mn11  1  0.799460  0.897385  0.593586  1
  Mn  Mn12  1  0.600808  0.799040  0.198473  1
  Mn  Mn13  1  0.399192  0.200960  0.801527  1
  Mn  Mn14  1  0.593943  0.303466  0.199991  1
  Mn  Mn15  1  0.406057  0.696534  0.800009  1
  Mn  Mn16  1  0.198657  0.600759  0.400428  1
  Mn  Mn17  1  0.200540  0.102615  0.406414  1
  Mn  Mn18  1  0.000000  0.500000  0.000000  1
  O  O19  1  0.963597  0.278773  0.993069  1
  O  O20  1  0.912267  0.901215  0.774485  1
  O  O21  1  0.874242  0.502889  0.810793  1
  O  O22  1  0.987236  0.707214  0.471729  1
  O  O23  1  0.837350  0.138070  0.613679  1
  O  O24  1  0.760480  0.662736  0.584908  1
  O  O25  1  0.811312  0.696218  0.126081  1
  O  O26  1  0.610166  0.090749  0.726351  1
  O  O27  1  0.727581  0.297804  0.387016  1
  O  O28  1  0.531368  0.689660  0.986276  1
  O  O29  1  0.584103  0.511297  0.669658  1
  O  O30  1  0.669921  0.905468  0.414849  1
  O  O31  1  0.770456  0.130827  0.080954  1
  O  O32  1  0.640471  0.537947  0.214974  1
  O  O33  1  0.445324  0.933692  0.813428  1
  O  O34  1  0.359528  0.462053  0.785026  1
  O  O35  1  0.554676  0.066308  0.186572  1
  O  O36  1  0.415897  0.488703  0.330342  1
  O  O37  1  0.330079  0.094532  0.585151  1
  O  O38  1  0.229544  0.869173  0.919046  1
  O  O39  1  0.468632  0.310340  0.013724  1
  O  O40  1  0.272419  0.702196  0.612984  1
  O  O41  1  0.389834  0.909251  0.273649  1
  O  O42  1  0.188688  0.303782  0.873919  1
  O  O43  1  0.239520  0.337264  0.415092  1
  O  O44  1  0.162650  0.861930  0.386321  1
  O  O45  1  0.012764  0.292786  0.528271  1
  O  O46  1  0.125758  0.497111  0.189207  1
  O  O47  1  0.087733  0.098785  0.225515  1
  O  O48  1  0.036403  0.721227  0.006931  1
