# generated using pymatgen
data_La5(Mo16O27)2
_symmetry_space_group_name_H-M   'P 1'
_cell_length_a   9.43992502
_cell_length_b   11.21259141
_cell_length_c   24.90347661
_cell_angle_alpha   100.63927570
_cell_angle_beta   90.00085944
_cell_angle_gamma   89.99828458
_symmetry_Int_Tables_number   1
_chemical_formula_structural   La5(Mo16O27)2
_chemical_formula_sum   'La10 Mo64 O108'
_cell_volume   2590.61965238
_cell_formula_units_Z   2
loop_
 _symmetry_equiv_pos_site_id
 _symmetry_equiv_pos_as_xyz
  1  'x, y, z'
loop_
 _atom_site_type_symbol
 _atom_site_label
 _atom_site_symmetry_multiplicity
 _atom_site_fract_x
 _atom_site_fract_y
 _atom_site_fract_z
 _atom_site_occupancy
  La  La0  1  0.481790  0.462561  0.301979  1
  La  La1  1  0.018189  0.962433  0.801912  1
  La  La2  1  0.489823  0.145399  0.591626  1
  La  La3  1  0.010185  0.645341  0.091677  1
  La  La4  1  0.499976  0.000022  0.000013  1
  La  La5  1  0.518247  0.537396  0.697969  1
  La  La6  1  0.510215  0.854671  0.408395  1
  La  La7  1  0.989836  0.354624  0.908312  1
  La  La8  1  -0.000225  0.499623  0.499897  1
  La  La9  1  0.981838  0.037571  0.198110  1
  Mo  Mo10  1  0.633043  0.035044  0.700717  1
  Mo  Mo11  1  0.861509  0.853361  0.022315  1
  Mo  Mo12  1  0.370881  0.017155  0.858094  1
  Mo  Mo13  1  0.365608  0.728070  0.825356  1
  Mo  Mo14  1  0.139072  0.684602  0.257983  1
  Mo  Mo15  1  0.625580  0.458133  0.855667  1
  Mo  Mo16  1  0.647761  0.417038  0.077547  1
  Mo  Mo17  1  0.644297  0.697238  0.113958  1
  Mo  Mo18  1  0.134376  0.228102  0.325380  1
  Mo  Mo19  1  0.135437  0.213882  0.544436  1
  Mo  Mo20  1  0.635424  0.286101  0.955566  1
  Mo  Mo21  1  0.147738  0.082975  0.422471  1
  Mo  Mo22  1  0.144331  0.802765  0.386069  1
  Mo  Mo23  1  0.349883  0.360771  0.447800  1
  Mo  Mo24  1  0.639072  0.815415  0.242058  1
  Mo  Mo25  1  0.355999  0.486511  0.575060  1
  Mo  Mo26  1  0.854761  0.369443  0.299830  1
  Mo  Mo27  1  0.650160  0.639233  0.552189  1
  Mo  Mo28  1  0.129279  0.279063  0.104619  1
  Mo  Mo29  1  0.629287  0.220967  0.395416  1
  Mo  Mo30  1  0.865595  0.771892  0.674593  1
  Mo  Mo31  1  0.849853  0.139226  0.052214  1
  Mo  Mo32  1  0.870698  0.720930  0.895389  1
  Mo  Mo33  1  0.134978  0.394447  0.231596  1
  Mo  Mo34  1  0.860952  0.315384  0.742016  1
  Mo  Mo35  1  0.634977  0.105551  0.268437  1
  Mo  Mo36  1  0.855689  0.197227  0.613921  1
  Mo  Mo37  1  0.629139  0.982845  0.141919  1
  Mo  Mo38  1  0.856030  0.013487  0.924920  1
  Mo  Mo39  1  0.125586  0.041846  0.644302  1
  Mo  Mo40  1  0.851640  0.659792  0.327751  1
  Mo  Mo41  1  0.147669  0.921783  0.514574  1
  Mo  Mo42  1  0.638453  0.353409  0.522331  1
  Mo  Mo43  1  0.351597  0.840225  0.172283  1
  Mo  Mo44  1  0.852229  0.917072  0.577517  1
  Mo  Mo45  1  0.355704  0.302770  0.886057  1
  Mo  Mo46  1  0.361490  0.646585  0.477671  1
  Mo  Mo47  1  0.374442  0.541885  0.144350  1
  Mo  Mo48  1  0.148404  0.340194  0.672239  1
  Mo  Mo49  1  0.129137  0.517158  0.358119  1
  Mo  Mo50  1  0.645234  0.869418  0.799778  1
  Mo  Mo51  1  0.874454  0.958095  0.355672  1
  Mo  Mo52  1  0.866968  0.535067  0.200768  1
  Mo  Mo53  1  0.145251  0.630569  0.700172  1
  Mo  Mo54  1  0.643971  0.513506  0.424930  1
  Mo  Mo55  1  0.634386  0.271914  0.174657  1
  Mo  Mo56  1  0.864992  0.605557  0.768407  1
  Mo  Mo57  1  0.365038  0.894428  0.731553  1
  Mo  Mo58  1  0.138482  0.146643  0.977699  1
  Mo  Mo59  1  0.366967  0.964942  0.299276  1
  Mo  Mo60  1  0.360937  0.184594  0.757951  1
  Mo  Mo61  1  0.150165  0.860768  0.947798  1
  Mo  Mo62  1  0.352240  0.582969  0.922467  1
  Mo  Mo63  1  0.354778  0.130574  0.200219  1
  Mo  Mo64  1  0.143964  0.986519  0.075093  1
  Mo  Mo65  1  0.852262  0.078276  0.485395  1
  Mo  Mo66  1  0.352276  0.421751  0.014599  1
  Mo  Mo67  1  0.870908  0.482850  0.641884  1
  Mo  Mo68  1  0.364577  0.713902  0.044451  1
  Mo  Mo69  1  0.370698  0.779054  0.604564  1
  Mo  Mo70  1  0.648422  0.159787  0.827728  1
  Mo  Mo71  1  0.864549  0.786104  0.455564  1
  Mo  Mo72  1  0.133018  0.464957  0.799240  1
  Mo  Mo73  1  0.647722  0.578249  0.985417  1
  O  O74  1  0.005502  0.408589  0.164231  1
  O  O75  1  0.479297  0.580983  0.849762  1
  O  O76  1  0.273957  0.805401  0.456858  1
  O  O77  1  0.217417  0.371812  0.520098  1
  O  O78  1  0.499510  0.166594  0.688511  1
  O  O79  1  0.490246  0.744607  0.755558  1
  O  O80  1  0.284111  0.946455  0.375681  1
  O  O81  1  0.710420  0.989337  0.063165  1
  O  O82  1  0.979312  0.918997  0.650191  1
  O  O83  1  0.499285  0.349302  0.591176  1
  O  O84  1  0.222197  0.988382  0.156722  1
  O  O85  1  0.502296  0.135615  0.136407  1
  O  O86  1  0.782666  0.628119  0.479883  1
  O  O87  1  0.744844  0.837968  0.167172  1
  O  O88  1  0.722227  0.511664  0.343326  1
  O  O89  1  0.500505  0.833387  0.311492  1
  O  O90  1  0.773499  0.961128  0.280617  1
  O  O91  1  0.003581  0.260242  0.032069  1
  O  O92  1  0.746733  0.064877  0.409532  1
  O  O93  1  0.789563  0.489342  0.563146  1
  O  O94  1  0.505497  0.091448  0.335822  1
  O  O95  1  0.255163  0.162041  0.832849  1
  O  O96  1  0.990227  0.755373  0.744382  1
  O  O97  1  0.503584  0.239723  0.467967  1
  O  O98  1  -0.001425  0.805867  0.317834  1
  O  O99  1  0.494467  0.908556  0.664161  1
  O  O100  1  0.215881  0.446415  0.875603  1
  O  O101  1  0.994454  0.591439  0.835768  1
  O  O102  1  0.509770  0.255382  0.244450  1
  O  O103  1  0.251221  0.379937  0.305718  1
  O  O104  1  0.250589  0.135813  0.050907  1
  O  O105  1  -0.000337  0.121478  0.117397  1
  O  O106  1  0.496426  0.760228  0.532013  1
  O  O107  1  -0.002260  0.635587  0.636351  1
  O  O108  1  -0.000709  0.150763  0.908879  1
  O  O109  1  0.757935  0.731176  0.822608  1
  O  O110  1  0.277765  0.488365  0.656679  1
  O  O111  1  0.009753  0.244638  0.255602  1
  O  O112  1  0.777814  0.011623  0.843284  1
  O  O113  1  0.746246  0.657783  0.253263  1
  O  O114  1  0.500743  0.650781  0.408880  1
  O  O115  1  0.749428  0.864181  0.949110  1
  O  O116  1  0.759114  0.772909  0.606161  1
  O  O117  1  0.773940  0.694605  0.043162  1
  O  O118  1  0.289579  0.010658  0.936845  1
  O  O119  1  0.509646  0.294037  0.025654  1
  O  O120  1  0.246767  0.435128  0.090486  1
  O  O121  1  0.993459  0.661443  0.398184  1
  O  O122  1  0.784100  0.553572  0.124396  1
  O  O123  1  0.020706  0.080979  0.349778  1
  O  O124  1  0.742076  0.231191  0.322657  1
  O  O125  1  0.242069  0.268822  0.177400  1
  O  O126  1  0.259795  0.076158  0.497321  1
  O  O127  1  0.500328  0.621506  0.617343  1
  O  O128  1  0.726521  0.461104  0.780562  1
  O  O129  1  -0.009625  0.794140  0.525624  1
  O  O130  1  0.755142  0.337974  0.667113  1
  O  O131  1  0.244188  0.190001  0.620867  1
  O  O132  1  0.259133  0.727105  0.893784  1
  O  O133  1  0.715874  0.053622  0.624351  1
  O  O134  1  0.996411  0.739766  0.967946  1
  O  O135  1  0.493433  0.838585  0.101860  1
  O  O136  1  -0.000492  0.333384  0.811427  1
  O  O137  1  0.755834  0.809996  0.379100  1
  O  O138  1  0.246251  0.842230  0.246812  1
  O  O139  1  0.498546  0.694140  0.182216  1
  O  O140  1  0.253212  0.935073  0.590423  1
  O  O141  1  0.240157  0.099163  0.271244  1
  O  O142  1  0.259814  0.599162  0.771190  1
  O  O143  1  0.253715  0.342204  0.746743  1
  O  O144  1  0.257942  0.768822  0.677327  1
  O  O145  1  0.226065  0.305402  0.956852  1
  O  O146  1  0.490357  0.705938  0.974370  1
  O  O147  1  0.497736  0.864393  0.863591  1
  O  O148  1  0.740088  0.923823  0.502649  1
  O  O149  1  0.753224  0.564888  0.909532  1
  O  O150  1  0.006542  0.338574  0.601795  1
  O  O151  1  0.240180  0.576168  0.997339  1
  O  O152  1  0.282592  0.871897  0.020116  1
  O  O153  1  0.740180  0.400860  0.228816  1
  O  O154  1  0.273490  0.538891  0.219440  1
  O  O155  1  0.000344  0.878522  0.882622  1
  O  O156  1  0.506576  0.161422  0.898160  1
  O  O157  1  0.240866  0.227044  0.393816  1
  O  O158  1  0.210400  0.510642  0.436868  1
  O  O159  1  0.001454  0.194113  0.682143  1
  O  O160  1  0.009631  0.206078  0.474345  1
  O  O161  1  0.520728  0.419015  0.150262  1
  O  O162  1  0.002282  0.364415  0.363671  1
  O  O163  1  0.501463  0.305877  0.817806  1
  O  O164  1  0.751245  0.120068  0.194337  1
  O  O165  1  0.226511  0.038861  0.719381  1
  O  O166  1  0.717401  0.128116  0.979903  1
  O  O167  1  0.499708  0.378558  0.382628  1
  O  O168  1  0.244884  0.662040  0.332880  1
  O  O169  1  0.248776  0.879934  0.805666  1
  O  O170  1  0.726026  0.194564  0.543133  1
  O  O171  1  0.249468  0.635860  0.550880  1
  O  O172  1  0.750652  0.364202  0.449128  1
  O  O173  1  0.748764  0.620054  0.694268  1
  O  O174  1  0.255833  0.690034  0.120930  1
  O  O175  1  0.759804  0.423837  0.002682  1
  O  O176  1  0.000709  0.849220  0.091124  1
  O  O177  1  0.744171  0.309961  0.879093  1
  O  O178  1  0.000491  0.666645  0.188591  1
  O  O179  1  0.759842  0.900814  0.728753  1
  O  O180  1  0.753713  0.157771  0.753195  1
  O  O181  1  0.740879  0.272909  0.106229  1
