# generated using pymatgen
data_La5Ti5O17
_symmetry_space_group_name_H-M   'P 1'
_cell_length_a   3.96781550
_cell_length_b   5.54592699
_cell_length_c   31.76261116
_cell_angle_alpha   90.00000000
_cell_angle_beta   89.99952984
_cell_angle_gamma   90.00000000
_symmetry_Int_Tables_number   1
_chemical_formula_structural   La5Ti5O17
_chemical_formula_sum   'La10 Ti10 O34'
_cell_volume   698.94308912
_cell_formula_units_Z   2
loop_
 _symmetry_equiv_pos_site_id
 _symmetry_equiv_pos_as_xyz
  1  'x, y, z'
loop_
 _atom_site_type_symbol
 _atom_site_label
 _atom_site_symmetry_multiplicity
 _atom_site_fract_x
 _atom_site_fract_y
 _atom_site_fract_z
 _atom_site_occupancy
  O  O0  1  0.005303  0.249688  0.034123  1
  O  O1  1  0.505303  0.750312  0.534123  1
  O  O2  1  0.505306  -0.024663  0.070487  1
  O  O3  1  0.005306  1.024663  0.570487  1
  O  O4  1  0.505290  0.454420  0.084866  1
  O  O5  1  1.005290  0.545580  0.584866  1
  O  O6  1  0.005270  0.751527  0.123027  1
  O  O7  1  0.505270  0.248473  0.623027  1
  O  O8  1  0.505297  0.056566  0.153871  1
  O  O9  1  0.005297  0.943434  0.653871  1
  O  O10  1  0.505283  0.558354  0.171853  1
  O  O11  1  0.005283  0.441646  0.671853  1
  O  O12  1  0.005291  0.260115  0.204981  1
  O  O13  1  0.505291  0.739885  0.704981  1
  O  O14  1  0.505259  -0.037273  0.239012  1
  O  O15  1  0.005259  1.037273  0.739012  1
  O  O16  1  0.505256  0.462099  0.256502  1
  O  O17  1  0.005256  0.537901  0.756502  1
  O  O18  1  0.005287  0.763785  0.287704  1
  O  O19  1  0.505287  0.236215  0.787704  1
  O  O20  1  0.505308  0.066499  0.981673  1
  O  O21  1  0.005308  0.933501  0.481673  1
  O  O22  1  0.505306  0.553628  0.993854  1
  O  O23  1  0.005306  0.446372  0.493854  1
  O  O24  1  0.005341  0.048448  0.916542  1
  O  O25  1  0.505341  0.951552  0.416542  1
  O  O26  1  0.005331  0.562781  0.929134  1
  O  O27  1  0.505331  0.437219  0.429134  1
  O  O28  1  0.505322  0.741345  0.876279  1
  O  O29  1  0.005322  0.258655  0.376279  1
  O  O30  1  0.005262  0.461844  0.840487  1
  O  O31  1  0.505262  0.538156  0.340487  1
  O  O32  1  0.005310  0.940384  0.825518  1
  O  O33  1  0.505310  0.059616  0.325518  1
  Ti  Ti34  1  0.505315  0.289285  0.028707  1
  Ti  Ti35  1  0.005315  0.710715  0.528707  1
  Ti  Ti36  1  0.505292  0.760397  0.114518  1
  Ti  Ti37  1  0.005292  0.239603  0.614518  1
  Ti  Ti38  1  0.505338  0.257396  0.205138  1
  Ti  Ti39  1  0.005338  0.742604  0.705138  1
  Ti  Ti40  1  0.505301  0.750648  0.296411  1
  Ti  Ti41  1  0.005301  0.249352  0.796411  1
  Ti  Ti42  1  0.505266  0.216348  0.382002  1
  Ti  Ti43  1  0.005266  0.783652  0.882002  1
  La  La44  1  0.005244  0.238648  0.112456  1
  La  La45  1  0.505244  0.761352  0.612456  1
  La  La46  1  0.005273  0.755741  0.205469  1
  La  La47  1  0.505273  0.244259  0.705469  1
  La  La48  1  0.005311  0.270539  0.297796  1
  La  La49  1  0.505311  0.729461  0.797796  1
  La  La50  1  0.005342  0.674224  0.420357  1
  La  La51  1  0.505342  0.325776  0.920357  1
  La  La52  1  0.505297  0.172649  0.490231  1
  La  La53  1  0.005297  0.827351  0.990231  1
