# generated using pymatgen
data_La5Ti4O15
_symmetry_space_group_name_H-M   'P 1'
_cell_length_a   5.55829603
_cell_length_b   5.55829603
_cell_length_c   22.46108841
_cell_angle_alpha   90.00000000
_cell_angle_beta   90.00000000
_cell_angle_gamma   120.00000006
_symmetry_Int_Tables_number   1
_chemical_formula_structural   La5Ti4O15
_chemical_formula_sum   'La10 Ti8 O30'
_cell_volume   600.95890518
_cell_formula_units_Z   2
loop_
 _symmetry_equiv_pos_site_id
 _symmetry_equiv_pos_as_xyz
  1  'x, y, z'
loop_
 _atom_site_type_symbol
 _atom_site_label
 _atom_site_symmetry_multiplicity
 _atom_site_fract_x
 _atom_site_fract_y
 _atom_site_fract_z
 _atom_site_occupancy
  O  O0  1  0.117433  0.772293  0.803632  1
  O  O1  1  0.227707  0.345139  0.803632  1
  O  O2  1  0.654861  0.882567  0.803632  1
  O  O3  1  0.345139  0.227707  0.696368  1
  O  O4  1  0.882567  0.654861  0.696368  1
  O  O5  1  0.772293  0.117433  0.696368  1
  O  O6  1  0.882567  0.227707  0.196368  1
  O  O7  1  0.772293  0.654861  0.196368  1
  O  O8  1  0.345139  0.117433  0.196368  1
  O  O9  1  0.654861  0.772293  0.303632  1
  O  O10  1  0.117433  0.345139  0.303632  1
  O  O11  1  0.227707  0.882567  0.303632  1
  O  O12  1  0.204152  0.877499  0.599336  1
  O  O13  1  0.122501  0.326653  0.599336  1
  O  O14  1  0.673347  0.795848  0.599336  1
  O  O15  1  0.326653  0.122501  0.900664  1
  O  O16  1  0.795848  0.673347  0.900664  1
  O  O17  1  0.877499  0.204152  0.900664  1
  O  O18  1  0.500000  0.000000  0.000000  1
  O  O19  1  0.000000  0.500000  0.000000  1
  O  O20  1  0.500000  0.500000  0.000000  1
  O  O21  1  0.500000  0.000000  0.500000  1
  O  O22  1  0.500000  0.500000  0.500000  1
  O  O23  1  0.000000  0.500000  0.500000  1
  O  O24  1  0.122501  0.795848  0.099336  1
  O  O25  1  0.204152  0.326653  0.099336  1
  O  O26  1  0.673347  0.877499  0.099336  1
  O  O27  1  0.326653  0.204152  0.400664  1
  O  O28  1  0.877499  0.673347  0.400664  1
  O  O29  1  0.795848  0.122501  0.400664  1
  Ti  Ti30  1  0.000000  0.000000  0.657427  1
  Ti  Ti31  1  0.000000  0.000000  0.842573  1
  Ti  Ti32  1  0.000000  0.000000  0.342573  1
  Ti  Ti33  1  0.000000  0.000000  0.157427  1
  Ti  Ti34  1  0.333333  0.666667  0.551104  1
  Ti  Ti35  1  0.666667  0.333333  0.948896  1
  Ti  Ti36  1  0.666667  0.333333  0.448896  1
  Ti  Ti37  1  0.333333  0.666667  0.051104  1
  La  La38  1  0.333333  0.666667  0.714655  1
  La  La39  1  0.666667  0.333333  0.785345  1
  La  La40  1  0.666667  0.333333  0.285345  1
  La  La41  1  0.333333  0.666667  0.214655  1
  La  La42  1  0.333333  0.666667  0.890947  1
  La  La43  1  0.666667  0.333333  0.609053  1
  La  La44  1  0.666667  0.333333  0.109053  1
  La  La45  1  0.333333  0.666667  0.390947  1
  La  La46  1  0.000000  0.000000  0.500000  1
  La  La47  1  0.000000  0.000000  0.000000  1
