# generated using pymatgen
data_La11V4O26
_symmetry_space_group_name_H-M   'P 1'
_cell_length_a   7.11665573
_cell_length_b   10.29284119
_cell_length_c   10.36712903
_cell_angle_alpha   89.97396463
_cell_angle_beta   71.41691957
_cell_angle_gamma   69.75205678
_symmetry_Int_Tables_number   1
_chemical_formula_structural   La11V4O26
_chemical_formula_sum   'La11 V4 O26'
_cell_volume   670.15346915
_cell_formula_units_Z   1
loop_
 _symmetry_equiv_pos_site_id
 _symmetry_equiv_pos_as_xyz
  1  'x, y, z'
loop_
 _atom_site_type_symbol
 _atom_site_label
 _atom_site_symmetry_multiplicity
 _atom_site_fract_x
 _atom_site_fract_y
 _atom_site_fract_z
 _atom_site_occupancy
  O  O0  1  0.505464  0.631372  0.676218  1
  O  O1  1  0.494581  0.368616  0.323720  1
  O  O2  1  0.340857  0.263673  0.062640  1
  O  O3  1  0.659134  0.736322  0.937295  1
  O  O4  1  0.069992  0.605721  0.913144  1
  O  O5  1  0.930017  0.394294  0.086844  1
  O  O6  1  0.509371  0.315543  0.600894  1
  O  O7  1  0.490737  0.684425  0.399043  1
  O  O8  1  0.920653  0.848603  0.752049  1
  O  O9  1  0.079332  0.151465  0.247945  1
  O  O10  1  0.198610  0.266662  0.501686  1
  O  O11  1  0.801493  0.733289  0.498283  1
  O  O12  1  0.963089  0.273512  0.832536  1
  O  O13  1  0.036858  0.726488  0.167542  1
  O  O14  1  0.022041  0.461454  0.309194  1
  O  O15  1  0.781973  0.081574  0.010871  1
  O  O16  1  0.217923  0.918535  0.989189  1
  O  O17  1  0.606660  0.092147  0.405438  1
  O  O18  1  0.393404  0.907871  0.594535  1
  O  O19  1  0.058374  0.892497  0.384005  1
  O  O20  1  0.977998  0.538507  0.690772  1
  O  O21  1  0.525382  0.420112  0.867426  1
  O  O22  1  0.474644  0.579807  0.132619  1
  O  O23  1  0.577423  0.906293  0.198795  1
  O  O24  1  0.422535  0.093773  0.801188  1
  O  O25  1  0.941636  0.107522  0.615943  1
  V  V26  1  0.083030  0.317380  0.194887  1
  V  V27  1  0.916921  0.682606  0.805101  1
  V  V28  1  0.548339  0.728221  0.542392  1
  V  V29  1  0.451646  0.271774  0.457639  1
  La  La30  1  0.183808  0.638710  0.339046  1
  La  La31  1  0.736216  0.985099  0.594947  1
  La  La32  1  0.816098  0.361145  0.660910  1
  La  La33  1  0.263776  0.014950  0.404940  1
  La  La34  1  0.906398  0.970044  0.192156  1
  La  La35  1  0.093641  0.030000  0.807866  1
  La  La36  1  0.649866  0.331173  0.046659  1
  La  La37  1  0.350071  0.668821  0.953377  1
  La  La38  1  0.752465  0.657169  0.157085  1
  La  La39  1  0.247635  0.342690  0.843094  1
  La  La40  1  0.499904  0.000141  0.000084  1
