# generated using pymatgen
data_La12Cu10O31
_symmetry_space_group_name_H-M   'P 1'
_cell_length_a   6.70774727
_cell_length_b   6.70774755
_cell_length_c   20.68413937
_cell_angle_alpha   89.94231506
_cell_angle_beta   89.94231506
_cell_angle_gamma   120.34579874
_symmetry_Int_Tables_number   1
_chemical_formula_structural   La12Cu10O31
_chemical_formula_sum   'La12 Cu10 O31'
_cell_volume   803.15011993
_cell_formula_units_Z   1
loop_
 _symmetry_equiv_pos_site_id
 _symmetry_equiv_pos_as_xyz
  1  'x, y, z'
loop_
 _atom_site_type_symbol
 _atom_site_label
 _atom_site_symmetry_multiplicity
 _atom_site_fract_x
 _atom_site_fract_y
 _atom_site_fract_z
 _atom_site_occupancy
  La  La0  1  0.999698  -0.000294  0.003965  1
  La  La1  1  0.000006  0.986112  0.261336  1
  La  La2  1  0.013888  -0.000006  0.488664  1
  La  La3  1  0.000294  0.000302  0.746035  1
  La  La4  1  0.333069  0.665925  0.004709  1
  La  La5  1  0.328998  0.665121  0.492450  1
  La  La6  1  0.334879  0.671002  0.257550  1
  La  La7  1  0.334075  0.666931  0.745291  1
  La  La8  1  0.667172  0.333114  0.745989  1
  La  La9  1  0.649831  0.333154  0.257512  1
  La  La10  1  0.666846  0.350169  0.492488  1
  La  La11  1  0.666886  0.332828  0.004011  1
  Cu  Cu12  1  0.329975  0.159342  0.130626  1
  Cu  Cu13  1  0.334673  0.170543  0.619092  1
  Cu  Cu14  1  0.332984  0.166384  0.875013  1
  Cu  Cu15  1  0.829457  0.665327  0.130908  1
  Cu  Cu16  1  0.833616  0.667016  0.874987  1
  Cu  Cu17  1  0.840658  0.670025  0.619374  1
  Cu  Cu18  1  0.838818  0.161182  0.375000  1
  Cu  Cu19  1  0.833620  0.166380  0.875000  1
  Cu  Cu20  1  0.839906  0.170660  0.131424  1
  Cu  Cu21  1  0.829340  0.160094  0.618576  1
  O  O22  1  0.992510  0.007490  0.375000  1
  O  O23  1  0.999055  0.000945  0.875000  1
  O  O24  1  0.000241  0.667144  0.202670  1
  O  O25  1  0.006125  0.648405  0.449207  1
  O  O26  1  0.001982  0.668932  0.951131  1
  O  O27  1  0.332415  -0.004963  0.055043  1
  O  O28  1  -0.001208  -0.002365  0.129215  1
  O  O29  1  0.002365  0.001208  0.620785  1
  O  O30  1  0.323642  0.325445  0.202176  1
  O  O31  1  0.337313  0.338613  0.694667  1
  O  O32  1  0.342806  0.357158  0.452866  1
  O  O33  1  0.334522  0.334479  0.951159  1
  O  O34  1  0.676090  0.004658  0.203367  1
  O  O35  1  0.351595  0.993875  0.300793  1
  O  O36  1  0.331068  0.998018  0.798869  1
  O  O37  1  0.332856  0.999759  0.547330  1
  O  O38  1  0.661387  0.662687  0.055333  1
  O  O39  1  0.674555  0.676358  0.547824  1
  O  O40  1  0.642842  0.657194  0.297134  1
  O  O41  1  0.665521  0.665478  0.798841  1
  O  O42  1  0.667799  0.332201  0.875000  1
  O  O43  1  0.665960  0.330658  0.131038  1
  O  O44  1  0.669342  0.334040  0.618962  1
  O  O45  1  0.004963  0.667585  0.694957  1
  O  O46  1  0.660454  0.013361  0.443229  1
  O  O47  1  0.662321  -0.004209  0.694764  1
  O  O48  1  0.667248  0.999648  0.951651  1
  O  O49  1  0.004209  0.337679  0.055236  1
  O  O50  1  -0.004658  0.323910  0.546633  1
  O  O51  1  0.986639  0.339546  0.306771  1
  O  O52  1  0.000352  0.332752  0.798349  1
