# generated using pymatgen
data_La2Cu2O5
_symmetry_space_group_name_H-M   'P 1'
_cell_length_a   3.77186612
_cell_length_b   7.22140206
_cell_length_c   26.95882586
_cell_angle_alpha   87.23989716
_cell_angle_beta   85.98853592
_cell_angle_gamma   74.86116568
_symmetry_Int_Tables_number   1
_chemical_formula_structural   La2Cu2O5
_chemical_formula_sum   'La12 Cu12 O30'
_cell_volume   706.74811178
_cell_formula_units_Z   6
loop_
 _symmetry_equiv_pos_site_id
 _symmetry_equiv_pos_as_xyz
  1  'x, y, z'
loop_
 _atom_site_type_symbol
 _atom_site_label
 _atom_site_symmetry_multiplicity
 _atom_site_fract_x
 _atom_site_fract_y
 _atom_site_fract_z
 _atom_site_occupancy
  La  La0  1  0.881645  0.653467  0.597238  1
  La  La1  1  0.866817  0.327242  0.865388  1
  La  La2  1  0.118355  0.346533  0.402762  1
  La  La3  1  0.593268  0.008316  0.768615  1
  La  La4  1  0.406732  0.991684  0.231385  1
  La  La5  1  0.129801  0.508316  0.268615  1
  La  La6  1  0.440552  0.827242  0.365388  1
  La  La7  1  0.559448  0.172758  0.634612  1
  La  La8  1  0.632349  0.846533  0.902762  1
  La  La9  1  0.367651  0.153467  0.097238  1
  La  La10  1  0.133183  0.672758  0.134612  1
  La  La11  1  0.870199  0.491684  0.731385  1
  Cu  Cu12  1  0.068177  0.160977  0.971216  1
  Cu  Cu13  1  0.269724  0.514895  0.960183  1
  Cu  Cu14  1  0.730276  0.485105  0.039817  1
  Cu  Cu15  1  0.931823  0.839023  0.028784  1
  Cu  Cu16  1  0.244802  0.985105  0.539817  1
  Cu  Cu17  1  0.755198  0.014895  0.460183  1
  Cu  Cu18  1  0.700370  0.339023  0.528784  1
  Cu  Cu19  1  0.772732  0.166986  0.319062  1
  Cu  Cu20  1  0.227268  0.833014  0.680938  1
  Cu  Cu21  1  0.241221  0.666986  0.819062  1
  Cu  Cu22  1  0.758779  0.333014  0.180938  1
  Cu  Cu23  1  0.299630  0.660977  0.471216  1
  O  O24  1  0.258755  0.334612  0.181001  1
  O  O25  1  0.766561  0.250000  0.250000  1
  O  O26  1  0.967546  0.833721  0.291112  1
  O  O27  1  0.274368  0.165388  0.318999  1
  O  O28  1  0.233439  0.750000  0.750000  1
  O  O29  1  0.601497  0.819515  0.087392  1
  O  O30  1  0.033444  0.006816  0.837419  1
  O  O31  1  0.008403  0.680485  0.412608  1
  O  O32  1  0.377679  0.493184  0.662581  1
  O  O33  1  0.102434  0.879942  0.960944  1
  O  O34  1  0.257307  0.586201  0.889055  1
  O  O35  1  0.991597  0.319515  0.587392  1
  O  O36  1  0.287319  0.950953  0.464050  1
  O  O37  1  0.797678  0.450953  0.964050  1
  O  O38  1  0.725632  0.834612  0.681001  1
  O  O39  1  0.443320  0.620058  0.539056  1
  O  O40  1  0.232562  0.913799  0.610945  1
  O  O41  1  0.712681  0.049047  0.535950  1
  O  O42  1  0.622321  0.506816  0.337419  1
  O  O43  1  0.741245  0.665388  0.818999  1
  O  O44  1  0.556680  0.379942  0.460944  1
  O  O45  1  0.202322  0.549047  0.035950  1
  O  O46  1  0.767438  0.086201  0.389055  1
  O  O47  1  0.742693  0.413799  0.110945  1
  O  O48  1  0.407621  0.333721  0.791112  1
  O  O49  1  0.032454  0.166279  0.708888  1
  O  O50  1  0.897566  0.120058  0.039056  1
  O  O51  1  0.592379  0.666279  0.208888  1
  O  O52  1  0.398503  0.180485  0.912608  1
  O  O53  1  0.966556  0.993184  0.162581  1
