# generated using pymatgen
data_La2CuO4
_symmetry_space_group_name_H-M   'P 1'
_cell_length_a   5.38141576
_cell_length_b   5.43927533
_cell_length_c   21.33589280
_cell_angle_alpha   90.00000000
_cell_angle_beta   112.17361141
_cell_angle_gamma   90.00000000
_symmetry_Int_Tables_number   1
_chemical_formula_structural   La2CuO4
_chemical_formula_sum   'La12 Cu6 O24'
_cell_volume   578.33605722
_cell_formula_units_Z   6
loop_
 _symmetry_equiv_pos_site_id
 _symmetry_equiv_pos_as_xyz
  1  'x, y, z'
loop_
 _atom_site_type_symbol
 _atom_site_label
 _atom_site_symmetry_multiplicity
 _atom_site_fract_x
 _atom_site_fract_y
 _atom_site_fract_z
 _atom_site_occupancy
  La  La0  1  0.136419  0.511974  0.759463  1
  La  La1  1  0.363764  0.009674  0.907233  1
  La  La2  1  0.136236  0.509674  0.426101  1
  La  La3  1  0.363581  0.011974  0.573870  1
  La  La4  1  0.636212  0.989842  0.759173  1
  La  La5  1  0.862750  0.490598  0.907001  1
  La  La6  1  0.135600  0.496477  0.092401  1
  La  La7  1  0.364400  0.996477  0.240932  1
  La  La8  1  0.637250  0.990598  0.426333  1
  La  La9  1  0.863788  0.489842  0.574160  1
  La  La10  1  0.636178  0.006241  0.093044  1
  La  La11  1  0.863822  0.506241  0.240289  1
  Cu  Cu12  1  0.499768  0.500565  0.666591  1
  Cu  Cu13  1  -0.000921  0.000640  0.000050  1
  Cu  Cu14  1  0.500921  0.500640  0.333283  1
  Cu  Cu15  1  0.000232  0.000565  0.666743  1
  Cu  Cu16  1  0.499408  0.503905  0.000254  1
  Cu  Cu17  1  0.000592  0.003905  0.333079  1
  O  O18  1  0.247412  0.753425  0.999441  1
  O  O19  1  0.188046  0.964426  0.790402  1
  O  O20  1  0.312638  0.472232  0.876428  1
  O  O21  1  0.242840  0.749641  0.662145  1
  O  O22  1  0.257160  0.249641  0.671188  1
  O  O23  1  0.749490  0.754659  0.998755  1
  O  O24  1  0.187362  0.972232  0.456906  1
  O  O25  1  0.311954  0.464426  0.542931  1
  O  O26  1  0.689232  0.536847  0.790545  1
  O  O27  1  0.809743  0.036707  0.875521  1
  O  O28  1  0.246777  0.751542  0.333238  1
  O  O29  1  0.252588  0.253425  0.333892  1
  O  O30  1  0.742740  0.750596  0.662148  1
  O  O31  1  0.757260  0.250596  0.671185  1
  O  O32  1  0.191082  0.061961  0.125021  1
  O  O33  1  0.308918  0.561961  0.208312  1
  O  O34  1  0.690257  0.536707  0.457812  1
  O  O35  1  0.810768  0.036847  0.542788  1
  O  O36  1  0.253223  0.251542  0.000096  1
  O  O37  1  0.751291  0.751261  0.332460  1
  O  O38  1  0.750510  0.254659  0.334578  1
  O  O39  1  0.687689  0.519787  0.123297  1
  O  O40  1  0.812311  0.019787  0.210037  1
  O  O41  1  0.748709  0.251261  0.000874  1
