# generated using pymatgen
data_La12Cu6O25
_symmetry_space_group_name_H-M   'P 1'
_cell_length_a   7.67581555
_cell_length_b   8.91079653
_cell_length_c   8.91079653
_cell_angle_alpha   85.84409993
_cell_angle_beta   77.53921634
_cell_angle_gamma   102.46078366
_symmetry_Int_Tables_number   1
_chemical_formula_structural   La12Cu6O25
_chemical_formula_sum   'La12 Cu6 O25'
_cell_volume   576.55574017
_cell_formula_units_Z   1
loop_
 _symmetry_equiv_pos_site_id
 _symmetry_equiv_pos_as_xyz
  1  'x, y, z'
loop_
 _atom_site_type_symbol
 _atom_site_label
 _atom_site_symmetry_multiplicity
 _atom_site_fract_x
 _atom_site_fract_y
 _atom_site_fract_z
 _atom_site_occupancy
  La  La0  1  0.000671  0.642818  0.640028  1
  La  La1  1  0.335060  0.026229  0.697544  1
  La  La2  1  0.330521  0.310886  0.976488  1
  La  La3  1  0.504640  0.645157  0.634912  1
  La  La4  1  0.165996  0.973362  0.309484  1
  La  La5  1  0.165131  0.688853  0.029578  1
  La  La6  1  0.831607  0.030877  0.692896  1
  La  La7  1  0.836145  0.309822  0.977553  1
  La  La8  1  0.501056  0.352924  0.352798  1
  La  La9  1  0.665611  0.686132  0.019591  1
  La  La10  1  0.001536  0.362911  0.355519  1
  La  La11  1  0.662027  0.968245  0.311824  1
  Cu  Cu12  1  0.999313  0.999336  0.000238  1
  Cu  Cu13  1  0.167354  0.333572  0.666002  1
  Cu  Cu14  1  0.332364  0.662940  0.330909  1
  Cu  Cu15  1  0.499466  0.998989  0.002908  1
  Cu  Cu16  1  0.667201  0.336241  0.665656  1
  Cu  Cu17  1  0.834302  0.664242  0.329606  1
  O  O18  1  0.083333  0.160309  0.826976  1
  O  O19  1  0.168941  0.514380  0.840057  1
  O  O20  1  0.158992  0.150997  0.491879  1
  O  O21  1  0.007674  0.825212  0.817663  1
  O  O22  1  0.251526  0.006723  0.005521  1
  O  O23  1  0.583333  0.171544  0.838211  1
  O  O24  1  0.083333  0.684935  0.351602  1
  O  O25  1  0.416573  0.334132  0.672578  1
  O  O26  1  0.252879  0.495424  0.494667  1
  O  O27  1  0.692882  0.567606  0.791639  1
  O  O28  1  0.344027  0.847440  0.519864  1
  O  O29  1  0.272963  0.487857  0.156712  1
  O  O30  1  0.497244  0.825895  0.816450  1
  O  O31  1  0.669423  0.149784  0.492562  1
  O  O32  1  0.473785  0.124972  0.234273  1
  O  O33  1  0.418850  0.818552  0.156016  1
  O  O34  1  0.750093  0.005911  0.000798  1
  O  O35  1  0.583333  0.407855  0.074522  1
  O  O36  1  0.747817  0.489349  0.485218  1
  O  O37  1  0.915141  0.338855  0.673390  1
  O  O38  1  0.583333  0.656131  0.322798  1
  O  O39  1  0.997726  0.173390  0.181047  1
  O  O40  1  0.822640  0.853197  0.514106  1
  O  O41  1  0.893703  0.490045  0.154523  1
  O  O42  1  0.913788  0.828001  0.162091  1
