# generated using pymatgen
data_La3Ir3O11
_symmetry_space_group_name_H-M   'P 1'
_cell_length_a   9.57647876
_cell_length_b   9.57647876
_cell_length_c   9.57647876
_cell_angle_alpha   90.00000000
_cell_angle_beta   90.00000000
_cell_angle_gamma   90.00000000
_symmetry_Int_Tables_number   1
_chemical_formula_structural   La3Ir3O11
_chemical_formula_sum   'La12 Ir12 O44'
_cell_volume   878.24876812
_cell_formula_units_Z   4
loop_
 _symmetry_equiv_pos_site_id
 _symmetry_equiv_pos_as_xyz
  1  'x, y, z'
loop_
 _atom_site_type_symbol
 _atom_site_label
 _atom_site_symmetry_multiplicity
 _atom_site_fract_x
 _atom_site_fract_y
 _atom_site_fract_z
 _atom_site_occupancy
  O  O0  1  0.084347  0.752454  0.458668  1
  O  O1  1  0.084347  0.747546  0.041332  1
  O  O2  1  0.415653  0.752454  0.041332  1
  O  O3  1  0.747546  0.041332  0.084347  1
  O  O4  1  0.041332  0.415653  0.752454  1
  O  O5  1  0.041332  0.084347  0.747546  1
  O  O6  1  0.752454  0.458668  0.084347  1
  O  O7  1  0.458668  0.084347  0.752454  1
  O  O8  1  0.752454  0.041332  0.415653  1
  O  O9  1  0.747546  0.458668  0.415653  1
  O  O10  1  0.458668  0.415653  0.747546  1
  O  O11  1  0.415653  0.747546  0.458668  1
  O  O12  1  0.915653  0.247546  0.541332  1
  O  O13  1  0.915653  0.252454  0.958668  1
  O  O14  1  0.584347  0.247546  0.958668  1
  O  O15  1  0.252454  0.958668  0.915653  1
  O  O16  1  0.644567  0.855433  0.644567  1
  O  O17  1  0.958668  0.584347  0.247546  1
  O  O18  1  0.247546  0.541332  0.915653  1
  O  O19  1  0.541332  0.915653  0.247546  1
  O  O20  1  0.247546  0.958668  0.584347  1
  O  O21  1  0.252454  0.541332  0.584347  1
  O  O22  1  0.541332  0.584347  0.252454  1
  O  O23  1  0.584347  0.252454  0.541332  1
  O  O24  1  0.613317  0.250000  0.250000  1
  O  O25  1  0.250000  0.613317  0.250000  1
  O  O26  1  0.250000  0.250000  0.613317  1
  O  O27  1  0.250000  0.886683  0.250000  1
  O  O28  1  0.250000  0.250000  0.886683  1
  O  O29  1  0.886683  0.250000  0.250000  1
  O  O30  1  0.386683  0.750000  0.750000  1
  O  O31  1  0.750000  0.386683  0.750000  1
  O  O32  1  0.750000  0.750000  0.386683  1
  O  O33  1  0.750000  0.113317  0.750000  1
  O  O34  1  0.750000  0.750000  0.113317  1
  O  O35  1  0.113317  0.750000  0.750000  1
  O  O36  1  0.144567  0.144567  0.144567  1
  O  O37  1  0.355433  0.355433  0.144567  1
  O  O38  1  0.144567  0.355433  0.355433  1
  O  O39  1  0.355433  0.144567  0.355433  1
  O  O40  1  0.855433  0.855433  0.855433  1
  O  O41  1  0.644567  0.644567  0.855433  1
  O  O42  1  0.855433  0.644567  0.644567  1
  O  O43  1  0.958668  0.915653  0.252454  1
  La  La44  1  0.000000  0.000000  0.000000  1
  La  La45  1  0.500000  0.500000  0.000000  1
  La  La46  1  0.000000  0.500000  0.500000  1
  La  La47  1  0.500000  0.000000  0.500000  1
  La  La48  1  0.385257  0.385257  0.385257  1
  La  La49  1  0.114743  0.114743  0.385257  1
  La  La50  1  0.385257  0.114743  0.114743  1
  La  La51  1  0.114743  0.385257  0.114743  1
  La  La52  1  0.614743  0.614743  0.614743  1
  La  La53  1  0.885257  0.885257  0.614743  1
  La  La54  1  0.614743  0.885257  0.885257  1
  La  La55  1  0.885257  0.614743  0.885257  1
  Ir  Ir56  1  0.407793  0.750000  0.250000  1
  Ir  Ir57  1  0.250000  0.407793  0.750000  1
  Ir  Ir58  1  0.750000  0.250000  0.407793  1
  Ir  Ir59  1  0.250000  0.092207  0.750000  1
  Ir  Ir60  1  0.750000  0.250000  0.092207  1
  Ir  Ir61  1  0.092207  0.750000  0.250000  1
  Ir  Ir62  1  0.592207  0.250000  0.750000  1
  Ir  Ir63  1  0.750000  0.592207  0.250000  1
  Ir  Ir64  1  0.250000  0.750000  0.592207  1
  Ir  Ir65  1  0.750000  0.907793  0.250000  1
  Ir  Ir66  1  0.250000  0.750000  0.907793  1
  Ir  Ir67  1  0.907793  0.250000  0.750000  1
