# generated using pymatgen
data_La6Mo8O33
_symmetry_space_group_name_H-M   'P 1'
_cell_length_a   10.87511131
_cell_length_b   11.95181410
_cell_length_c   12.15245385
_cell_angle_alpha   90.00000000
_cell_angle_beta   90.00000000
_cell_angle_gamma   116.04271215
_symmetry_Int_Tables_number   1
_chemical_formula_structural   La6Mo8O33
_chemical_formula_sum   'La12 Mo16 O66'
_cell_volume   1419.16748845
_cell_formula_units_Z   2
loop_
 _symmetry_equiv_pos_site_id
 _symmetry_equiv_pos_as_xyz
  1  'x, y, z'
loop_
 _atom_site_type_symbol
 _atom_site_label
 _atom_site_symmetry_multiplicity
 _atom_site_fract_x
 _atom_site_fract_y
 _atom_site_fract_z
 _atom_site_occupancy
  O  O0  1  0.779800  0.960510  0.612876  1
  O  O1  1  0.220200  0.039490  0.112876  1
  O  O2  1  0.694115  0.840232  0.401734  1
  O  O3  1  0.305885  0.159768  0.901734  1
  O  O4  1  0.774433  0.719756  0.576069  1
  O  O5  1  0.225567  0.280244  0.076069  1
  O  O6  1  0.995266  0.894094  0.484434  1
  O  O7  1  0.004734  0.105906  0.984434  1
  O  O8  1  0.558806  0.003684  0.682643  1
  O  O9  1  0.441194  0.996316  0.182643  1
  O  O10  1  0.409219  0.799733  0.848396  1
  O  O11  1  0.590781  0.200267  0.348396  1
  O  O12  1  0.573041  0.749009  0.697098  1
  O  O13  1  0.426959  0.250991  0.197098  1
  O  O14  1  0.704943  0.943908  0.859631  1
  O  O15  1  0.295057  0.056092  0.359631  1
  O  O16  1  0.691564  0.992410  0.080484  1
  O  O17  1  0.308436  0.007590  0.580484  1
  O  O18  1  0.179781  0.792923  0.435456  1
  O  O19  1  0.820219  0.207077  0.935456  1
  O  O20  1  0.335511  0.777241  0.614834  1
  O  O21  1  0.664489  0.222759  0.114834  1
  O  O22  1  0.489150  0.943454  0.433280  1
  O  O23  1  0.510850  0.056546  0.933280  1
  O  O24  1  0.926693  0.002203  0.200781  1
  O  O25  1  0.073307  0.997797  0.700781  1
  O  O26  1  0.874718  0.793581  0.825209  1
  O  O27  1  0.125282  0.206419  0.325209  1
  O  O28  1  0.052794  0.746182  0.688492  1
  O  O29  1  0.947206  0.253818  0.188492  1
  O  O30  1  0.254721  0.921533  0.810438  1
  O  O31  1  0.745279  0.078467  0.310438  1
  O  O32  1  0.894836  0.711517  0.070574  1
  O  O33  1  0.105164  0.288483  0.570574  1
  O  O34  1  0.791482  0.536173  0.896801  1
  O  O35  1  0.208518  0.463827  0.396801  1
  O  O36  1  0.933391  0.475219  0.075094  1
  O  O37  1  0.066609  0.524781  0.575094  1
  O  O38  1  0.088983  0.691496  0.918796  1
  O  O39  1  0.911017  0.308504  0.418796  1
  O  O40  1  0.688447  0.757963  0.162479  1
  O  O41  1  0.311553  0.242037  0.662479  1
  O  O42  1  0.541139  0.565090  0.323353  1
  O  O43  1  0.458861  0.434910  0.823353  1
  O  O44  1  0.708253  0.500957  0.181783  1
  O  O45  1  0.291747  0.499043  0.681783  1
  O  O46  1  0.837524  0.695484  0.339320  1
  O  O47  1  0.162476  0.304516  0.839320  1
  O  O48  1  0.427930  0.764215  0.076751  1
  O  O49  1  0.572070  0.235785  0.576751  1
  O  O50  1  0.723932  0.447084  0.427632  1
  O  O51  1  0.276068  0.552916  0.927632  1
  O  O52  1  0.553032  0.469032  0.601270  1
  O  O53  1  0.446968  0.530968  0.101270  1
  O  O54  1  0.593987  0.688338  0.924565  1
  O  O55  1  0.406013  0.311662  0.424565  1
  O  O56  1  0.155715  0.725872  0.146148  1
  O  O57  1  0.844285  0.274128  0.646148  1
  O  O58  1  0.981640  0.441474  0.828736  1
  O  O59  1  0.018360  0.558526  0.328736  1
  O  O60  1  0.815267  0.503138  0.667342  1
  O  O61  1  0.184733  0.496862  0.167342  1
  O  O62  1  0.338482  0.708983  0.306877  1
  O  O63  1  0.661518  0.291017  0.806877  1
  O  O64  1  0.080407  0.931779  0.942583  1
  O  O65  1  0.919593  0.068221  0.442583  1
  Mo  Mo66  1  0.817596  0.872091  0.509859  1
  Mo  Mo67  1  0.182404  0.127909  0.009859  1
  Mo  Mo68  1  0.565353  0.876431  0.766483  1
  Mo  Mo69  1  0.434647  0.123569  0.266483  1
  Mo  Mo70  1  0.329744  0.882215  0.512706  1
  Mo  Mo71  1  0.670256  0.117785  0.012706  1
  Mo  Mo72  1  0.064092  0.874898  0.783560  1
  Mo  Mo73  1  0.935908  0.125102  0.283560  1
  Mo  Mo74  1  0.927386  0.601542  0.993476  1
  Mo  Mo75  1  0.072614  0.398458  0.493476  1
  Mo  Mo76  1  0.696636  0.631421  0.246506  1
  Mo  Mo77  1  0.303364  0.368579  0.746506  1
  Mo  Mo78  1  0.436118  0.635506  0.002917  1
  Mo  Mo79  1  0.563882  0.364494  0.502917  1
  Mo  Mo80  1  0.175660  0.623466  0.243730  1
  Mo  Mo81  1  0.824340  0.376534  0.743730  1
  La  La82  1  0.839612  0.885122  0.999340  1
  La  La83  1  0.160388  0.114878  0.499340  1
  La  La84  1  0.567910  0.875523  0.250873  1
  La  La85  1  0.432090  0.124477  0.750873  1
  La  La86  1  0.282471  0.890605  0.007792  1
  La  La87  1  0.717529  0.109395  0.507792  1
  La  La88  1  0.947127  0.658183  0.500986  1
  La  La89  1  0.052873  0.341817  0.000986  1
  La  La90  1  0.676182  0.612974  0.754870  1
  La  La91  1  0.323818  0.387026  0.254870  1
  La  La92  1  0.194799  0.634322  0.754944  1
  La  La93  1  0.805201  0.365678  0.254944  1
