# generated using pymatgen
data_LaMo2O5
_symmetry_space_group_name_H-M   'P 1'
_cell_length_a   8.89433725
_cell_length_b   8.89433828
_cell_length_c   18.96769375
_cell_angle_alpha   90.00000000
_cell_angle_beta   90.00000000
_cell_angle_gamma   119.99999622
_symmetry_Int_Tables_number   1
_chemical_formula_structural   LaMo2O5
_chemical_formula_sum   'La12 Mo24 O60'
_cell_volume   1299.48841696
_cell_formula_units_Z   12
loop_
 _symmetry_equiv_pos_site_id
 _symmetry_equiv_pos_as_xyz
  1  'x, y, z'
loop_
 _atom_site_type_symbol
 _atom_site_label
 _atom_site_symmetry_multiplicity
 _atom_site_fract_x
 _atom_site_fract_y
 _atom_site_fract_z
 _atom_site_occupancy
  La  La0  1  0.333333  0.666667  -0.001276  1
  La  La1  1  0.666667  0.333333  0.498724  1
  La  La2  1  0.009023  0.504511  0.348606  1
  La  La3  1  0.504511  0.009023  0.848606  1
  La  La4  1  0.495489  0.504511  0.348606  1
  La  La5  1  0.990977  0.495489  0.848606  1
  La  La6  1  0.000000  0.000000  0.273012  1
  La  La7  1  0.504511  0.495489  0.848606  1
  La  La8  1  0.666667  0.333333  0.012294  1
  La  La9  1  0.333333  0.666667  0.512294  1
  La  La10  1  0.000000  0.000000  0.773011  1
  La  La11  1  0.495489  0.990977  0.348606  1
  Mo  Mo12  1  0.892383  0.784764  0.052912  1
  Mo  Mo13  1  0.784942  0.215058  0.683755  1
  Mo  Mo14  1  0.106195  0.893805  0.940004  1
  Mo  Mo15  1  0.448735  0.897469  0.675847  1
  Mo  Mo16  1  0.551265  0.448735  0.175847  1
  Mo  Mo17  1  0.893805  0.787609  0.440004  1
  Mo  Mo18  1  0.215058  0.784942  0.183755  1
  Mo  Mo19  1  0.784942  0.569886  0.683755  1
  Mo  Mo20  1  0.551265  0.102531  0.175847  1
  Mo  Mo21  1  0.569886  0.784942  0.183755  1
  Mo  Mo22  1  0.215058  0.430114  0.183755  1
  Mo  Mo23  1  0.897469  0.448735  0.175847  1
  Mo  Mo24  1  0.893805  0.106195  0.440004  1
  Mo  Mo25  1  0.107617  0.215236  0.552912  1
  Mo  Mo26  1  0.215236  0.107617  0.052912  1
  Mo  Mo27  1  0.212391  0.106195  0.440004  1
  Mo  Mo28  1  0.430114  0.215058  0.683755  1
  Mo  Mo29  1  0.448735  0.551265  0.675847  1
  Mo  Mo30  1  0.102531  0.551265  0.675847  1
  Mo  Mo31  1  0.107617  0.892383  0.552912  1
  Mo  Mo32  1  0.106195  0.212391  0.940004  1
  Mo  Mo33  1  0.784764  0.892383  0.552912  1
  Mo  Mo34  1  0.787609  0.893805  0.940004  1
  Mo  Mo35  1  0.892383  0.107617  0.052912  1
  O  O36  1  0.102356  0.897644  0.369823  1
  O  O37  1  0.897644  0.102356  0.869823  1
  O  O38  1  0.565738  0.434262  0.616884  1
  O  O39  1  0.004723  0.668502  0.246171  1
  O  O40  1  0.204712  0.102356  0.869823  1
  O  O41  1  0.105064  0.210128  0.117608  1
  O  O42  1  0.675132  0.666883  0.991457  1
  O  O43  1  0.336221  0.331498  0.746171  1
  O  O44  1  0.105064  0.894936  0.117608  1
  O  O45  1  0.225392  0.450784  0.609720  1
  O  O46  1  0.894936  0.789872  0.617608  1
  O  O47  1  0.774608  0.225392  0.109720  1
  O  O48  1  0.453986  0.226993  0.390815  1
  O  O49  1  0.666667  0.333333  0.233540  1
  O  O50  1  0.773007  0.226993  0.390815  1
  O  O51  1  0.789872  0.894936  0.117608  1
  O  O52  1  0.666667  0.333333  0.893505  1
  O  O53  1  0.666883  0.675132  0.491457  1
  O  O54  1  0.226993  0.773007  0.890815  1
  O  O55  1  0.331498  0.336221  0.246171  1
  O  O56  1  0.324868  0.333117  0.491457  1
  O  O57  1  0.225392  0.774608  0.609720  1
  O  O58  1  0.795288  0.897644  0.369823  1
  O  O59  1  0.549216  0.774608  0.609720  1
  O  O60  1  0.675132  0.008250  0.991457  1
  O  O61  1  0.668502  0.663779  0.746171  1
  O  O62  1  0.666883  0.991750  0.491457  1
  O  O63  1  0.331498  0.995276  0.246171  1
  O  O64  1  0.336221  0.004723  0.746171  1
  O  O65  1  0.666667  0.333333  0.741238  1
  O  O66  1  0.210128  0.105064  0.617608  1
  O  O67  1  0.333333  0.666667  0.241238  1
  O  O68  1  0.333333  0.666667  0.393505  1
  O  O69  1  0.897644  0.795288  0.869823  1
  O  O70  1  0.434262  0.565738  0.116884  1
  O  O71  1  0.324868  0.991750  0.491457  1
  O  O72  1  0.131476  0.565738  0.116884  1
  O  O73  1  0.774608  0.549216  0.109720  1
  O  O74  1  0.991750  0.324868  0.991457  1
  O  O75  1  0.333333  0.666667  0.733540  1
  O  O76  1  0.102356  0.204712  0.369823  1
  O  O77  1  0.995276  0.331498  0.746171  1
  O  O78  1  0.868524  0.434262  0.616884  1
  O  O79  1  0.004723  0.336221  0.246171  1
  O  O80  1  0.450784  0.225392  0.109720  1
  O  O81  1  0.333117  0.324868  0.991457  1
  O  O82  1  0.894936  0.105064  0.617608  1
  O  O83  1  0.546014  0.773007  0.890815  1
  O  O84  1  0.663779  0.668502  0.246171  1
  O  O85  1  0.008250  0.333117  0.491457  1
  O  O86  1  0.773007  0.546014  0.390815  1
  O  O87  1  0.333117  0.008250  0.991457  1
  O  O88  1  0.226993  0.453986  0.890815  1
  O  O89  1  0.668502  0.004723  0.746171  1
  O  O90  1  0.663779  0.995276  0.246171  1
  O  O91  1  0.991750  0.666883  0.991457  1
  O  O92  1  0.565738  0.131476  0.616884  1
  O  O93  1  0.008250  0.675132  0.491457  1
  O  O94  1  0.434262  0.868524  0.116884  1
  O  O95  1  0.995276  0.663779  0.746171  1
