# generated using pymatgen
data_La3MoO7
_symmetry_space_group_name_H-M   'P 1'
_cell_length_a   7.72515856
_cell_length_b   7.80908249
_cell_length_c   11.12450104
_cell_angle_alpha   90.00000000
_cell_angle_beta   90.00000000
_cell_angle_gamma   90.00000000
_symmetry_Int_Tables_number   1
_chemical_formula_structural   La3MoO7
_chemical_formula_sum   'La12 Mo4 O28'
_cell_volume   671.10110447
_cell_formula_units_Z   4
loop_
 _symmetry_equiv_pos_site_id
 _symmetry_equiv_pos_as_xyz
  1  'x, y, z'
loop_
 _atom_site_type_symbol
 _atom_site_label
 _atom_site_symmetry_multiplicity
 _atom_site_fract_x
 _atom_site_fract_y
 _atom_site_fract_z
 _atom_site_occupancy
  O  O0  1  0.509031  0.239867  0.118974  1
  O  O1  1  0.009031  0.260133  0.881026  1
  O  O2  1  0.490969  0.739868  0.381026  1
  O  O3  1  0.990969  0.760132  0.618974  1
  O  O4  1  0.535725  0.252510  0.382757  1
  O  O5  1  0.035725  0.247490  0.617242  1
  O  O6  1  0.464275  0.752510  0.117243  1
  O  O7  1  0.964276  0.747490  0.882758  1
  O  O8  1  0.306493  0.969367  0.869880  1
  O  O9  1  0.806493  0.530633  0.130120  1
  O  O10  1  0.693507  0.469367  0.630120  1
  O  O11  1  0.193507  0.030632  0.369879  1
  O  O12  1  0.676347  0.034651  0.874112  1
  O  O13  1  0.176347  0.465349  0.125888  1
  O  O14  1  0.323653  0.534652  0.625888  1
  O  O15  1  0.823653  0.965348  0.374112  1
  O  O16  1  0.578356  0.746121  0.756978  1
  O  O17  1  0.078356  0.753879  0.243021  1
  O  O18  1  0.421644  0.246122  0.743021  1
  O  O19  1  0.921645  0.253878  0.256979  1
  O  O20  1  0.787910  0.965881  0.129802  1
  O  O21  1  0.287909  0.534119  0.870197  1
  O  O22  1  0.366846  0.951831  0.609242  1
  O  O23  1  0.712090  0.034120  0.629803  1
  O  O24  1  0.133154  0.048170  0.109242  1
  O  O25  1  0.633154  0.451831  0.890759  1
  O  O26  1  0.866846  0.548169  0.390759  1
  O  O27  1  0.212089  0.465880  0.370198  1
  Mo  Mo28  1  0.498868  -0.000106  0.749397  1
  Mo  Mo29  1  0.998868  0.500105  0.250602  1
  Mo  Mo30  1  0.501133  0.499894  0.750603  1
  Mo  Mo31  1  0.001132  1.000106  0.249398  1
  La  La32  1  0.528384  0.991820  0.253766  1
  La  La33  1  0.293593  0.253183  0.967255  1
  La  La34  1  0.206407  0.746818  0.467256  1
  La  La35  1  0.706408  0.753182  0.532745  1
  La  La36  1  0.793593  0.246818  0.032744  1
  La  La37  1  0.028384  0.508180  0.746233  1
  La  La38  1  0.471616  0.491820  0.246233  1
  La  La39  1  0.971617  0.008180  0.753767  1
  La  La40  1  0.697236  0.746836  0.981295  1
  La  La41  1  0.197235  0.753164  0.018705  1
  La  La42  1  0.302765  0.246836  0.518705  1
  La  La43  1  0.802765  0.253164  0.481295  1
