# generated using pymatgen
data_La3Pt3O11
_symmetry_space_group_name_H-M   'P 1'
_cell_length_a   9.60821603
_cell_length_b   9.60821603
_cell_length_c   9.60821603
_cell_angle_alpha   90.00000000
_cell_angle_beta   90.00000000
_cell_angle_gamma   90.00000000
_symmetry_Int_Tables_number   1
_chemical_formula_structural   La3Pt3O11
_chemical_formula_sum   'La12 Pt12 O44'
_cell_volume   887.00951262
_cell_formula_units_Z   4
loop_
 _symmetry_equiv_pos_site_id
 _symmetry_equiv_pos_as_xyz
  1  'x, y, z'
loop_
 _atom_site_type_symbol
 _atom_site_label
 _atom_site_symmetry_multiplicity
 _atom_site_fract_x
 _atom_site_fract_y
 _atom_site_fract_z
 _atom_site_occupancy
  La  La0  1  0.000000  0.000000  0.500000  1
  La  La1  1  0.000000  0.500000  0.000000  1
  La  La2  1  0.115118  0.115118  0.115118  1
  La  La3  1  0.115118  0.384882  0.384882  1
  La  La4  1  0.384882  0.115118  0.384882  1
  La  La5  1  0.384882  0.384882  0.115118  1
  La  La6  1  0.500000  0.500000  0.500000  1
  La  La7  1  0.500000  0.000000  0.000000  1
  La  La8  1  0.615118  0.615118  0.884882  1
  La  La9  1  0.615118  0.884882  0.615118  1
  La  La10  1  0.884882  0.615118  0.615118  1
  La  La11  1  0.884882  0.884882  0.884882  1
  Pt  Pt12  1  0.092567  0.750000  0.250000  1
  Pt  Pt13  1  0.250000  0.092567  0.750000  1
  Pt  Pt14  1  0.250000  0.750000  0.592567  1
  Pt  Pt15  1  0.250000  0.750000  0.907433  1
  Pt  Pt16  1  0.250000  0.407433  0.750000  1
  Pt  Pt17  1  0.407433  0.750000  0.250000  1
  Pt  Pt18  1  0.592567  0.250000  0.750000  1
  Pt  Pt19  1  0.750000  0.250000  0.092567  1
  Pt  Pt20  1  0.750000  0.250000  0.407433  1
  Pt  Pt21  1  0.750000  0.592567  0.250000  1
  Pt  Pt22  1  0.750000  0.907433  0.250000  1
  Pt  Pt23  1  0.907433  0.250000  0.750000  1
  O  O24  1  0.038929  0.081778  0.752730  1
  O  O25  1  0.038929  0.418222  0.747270  1
  O  O26  1  0.081778  0.752730  0.038929  1
  O  O27  1  0.081778  0.747270  0.461071  1
  O  O28  1  0.109624  0.750000  0.750000  1
  O  O29  1  0.144505  0.144505  0.355495  1
  O  O30  1  0.144505  0.355495  0.144505  1
  O  O31  1  0.247270  0.961071  0.918222  1
  O  O32  1  0.247270  0.538929  0.581778  1
  O  O33  1  0.250000  0.890376  0.250000  1
  O  O34  1  0.250000  0.609624  0.250000  1
  O  O35  1  0.250000  0.250000  0.609624  1
  O  O36  1  0.250000  0.250000  0.890376  1
  O  O37  1  0.252730  0.538929  0.918222  1
  O  O38  1  0.252730  0.961071  0.581778  1
  O  O39  1  0.355495  0.144505  0.144505  1
  O  O40  1  0.355495  0.355495  0.355495  1
  O  O41  1  0.390376  0.750000  0.750000  1
  O  O42  1  0.418222  0.747270  0.038929  1
  O  O43  1  0.418222  0.752730  0.461071  1
  O  O44  1  0.461071  0.081778  0.747270  1
  O  O45  1  0.461071  0.418222  0.752730  1
  O  O46  1  0.538929  0.581778  0.247270  1
  O  O47  1  0.538929  0.918222  0.252730  1
  O  O48  1  0.581778  0.247270  0.538929  1
  O  O49  1  0.581778  0.252730  0.961071  1
  O  O50  1  0.609624  0.250000  0.250000  1
  O  O51  1  0.644505  0.644505  0.644505  1
  O  O52  1  0.644505  0.855495  0.855495  1
  O  O53  1  0.747270  0.038929  0.418222  1
  O  O54  1  0.747270  0.461071  0.081778  1
  O  O55  1  0.750000  0.109624  0.750000  1
  O  O56  1  0.750000  0.390376  0.750000  1
  O  O57  1  0.750000  0.750000  0.109624  1
  O  O58  1  0.750000  0.750000  0.390376  1
  O  O59  1  0.752730  0.038929  0.081778  1
  O  O60  1  0.752730  0.461071  0.418222  1
  O  O61  1  0.855495  0.644505  0.855495  1
  O  O62  1  0.855495  0.855495  0.644505  1
  O  O63  1  0.890376  0.250000  0.250000  1
  O  O64  1  0.918222  0.247270  0.961071  1
  O  O65  1  0.918222  0.252730  0.538929  1
  O  O66  1  0.961071  0.918222  0.247270  1
  O  O67  1  0.961071  0.581778  0.252730  1
