# generated using pymatgen
data_La3Ru3O11
_symmetry_space_group_name_H-M   'P 1'
_cell_length_a   9.54353156
_cell_length_b   9.54353156
_cell_length_c   9.54353156
_cell_angle_alpha   90.00000000
_cell_angle_beta   90.00000000
_cell_angle_gamma   90.00000000
_symmetry_Int_Tables_number   1
_chemical_formula_structural   La3Ru3O11
_chemical_formula_sum   'La12 Ru12 O44'
_cell_volume   869.21525977
_cell_formula_units_Z   4
loop_
 _symmetry_equiv_pos_site_id
 _symmetry_equiv_pos_as_xyz
  1  'x, y, z'
loop_
 _atom_site_type_symbol
 _atom_site_label
 _atom_site_symmetry_multiplicity
 _atom_site_fract_x
 _atom_site_fract_y
 _atom_site_fract_z
 _atom_site_occupancy
  O  O0  1  0.080302  0.752735  0.462110  1
  O  O1  1  0.080302  0.747265  0.037890  1
  O  O2  1  0.419698  0.752735  0.037890  1
  O  O3  1  0.747265  0.037890  0.080302  1
  O  O4  1  0.037890  0.419698  0.752735  1
  O  O5  1  0.037890  0.080302  0.747265  1
  O  O6  1  0.752735  0.462110  0.080302  1
  O  O7  1  0.462110  0.080302  0.752735  1
  O  O8  1  0.752735  0.037890  0.419698  1
  O  O9  1  0.747265  0.462110  0.419698  1
  O  O10  1  0.462110  0.419698  0.747265  1
  O  O11  1  0.419698  0.747265  0.462110  1
  O  O12  1  0.919698  0.247265  0.537890  1
  O  O13  1  0.919698  0.252735  0.962110  1
  O  O14  1  0.580302  0.247265  0.962110  1
  O  O15  1  0.252735  0.962110  0.919698  1
  O  O16  1  0.644991  0.855009  0.644991  1
  O  O17  1  0.962110  0.580302  0.247265  1
  O  O18  1  0.247265  0.537890  0.919698  1
  O  O19  1  0.537890  0.919698  0.247265  1
  O  O20  1  0.247265  0.962110  0.580302  1
  O  O21  1  0.252735  0.537890  0.580302  1
  O  O22  1  0.537890  0.580302  0.252735  1
  O  O23  1  0.580302  0.252735  0.537890  1
  O  O24  1  0.623607  0.250000  0.250000  1
  O  O25  1  0.250000  0.623607  0.250000  1
  O  O26  1  0.250000  0.250000  0.623607  1
  O  O27  1  0.250000  0.876393  0.250000  1
  O  O28  1  0.250000  0.250000  0.876393  1
  O  O29  1  0.876393  0.250000  0.250000  1
  O  O30  1  0.376393  0.750000  0.750000  1
  O  O31  1  0.750000  0.376393  0.750000  1
  O  O32  1  0.750000  0.750000  0.376393  1
  O  O33  1  0.750000  0.123607  0.750000  1
  O  O34  1  0.750000  0.750000  0.123607  1
  O  O35  1  0.123607  0.750000  0.750000  1
  O  O36  1  0.144991  0.144991  0.144991  1
  O  O37  1  0.355009  0.355009  0.144991  1
  O  O38  1  0.144991  0.355009  0.355009  1
  O  O39  1  0.355009  0.144991  0.355009  1
  O  O40  1  0.855009  0.855009  0.855009  1
  O  O41  1  0.644991  0.644991  0.855009  1
  O  O42  1  0.855009  0.644991  0.644991  1
  O  O43  1  0.962110  0.919698  0.252735  1
  Ru  Ru44  1  0.911286  0.250000  0.750000  1
  Ru  Ru45  1  0.250000  0.750000  0.911286  1
  Ru  Ru46  1  0.750000  0.911286  0.250000  1
  Ru  Ru47  1  0.250000  0.750000  0.588714  1
  Ru  Ru48  1  0.750000  0.588714  0.250000  1
  Ru  Ru49  1  0.588714  0.250000  0.750000  1
  Ru  Ru50  1  0.088714  0.750000  0.250000  1
  Ru  Ru51  1  0.750000  0.250000  0.088714  1
  Ru  Ru52  1  0.250000  0.088714  0.750000  1
  Ru  Ru53  1  0.750000  0.250000  0.411286  1
  Ru  Ru54  1  0.250000  0.411286  0.750000  1
  Ru  Ru55  1  0.411286  0.750000  0.250000  1
  La  La56  1  0.886118  0.613882  0.886118  1
  La  La57  1  0.613882  0.886118  0.886118  1
  La  La58  1  0.886118  0.886118  0.613882  1
  La  La59  1  0.613882  0.613882  0.613882  1
  La  La60  1  0.113882  0.386118  0.113882  1
  La  La61  1  0.386118  0.113882  0.113882  1
  La  La62  1  0.113882  0.113882  0.386118  1
  La  La63  1  0.386118  0.386118  0.386118  1
  La  La64  1  0.500000  0.000000  0.500000  1
  La  La65  1  0.000000  0.500000  0.500000  1
  La  La66  1  0.500000  0.500000  0.000000  1
  La  La67  1  0.000000  0.000000  0.000000  1
