# generated using pymatgen
data_Ce(BIr)2
_symmetry_space_group_name_H-M   'P 1'
_cell_length_a   5.58036127
_cell_length_b   5.58036127
_cell_length_c   6.12979536
_cell_angle_alpha   105.46908710
_cell_angle_beta   105.46908717
_cell_angle_gamma   114.45898498
_symmetry_Int_Tables_number   1
_chemical_formula_structural   Ce(BIr)2
_chemical_formula_sum   'Ce2 B4 Ir4'
_cell_volume   151.19486742
_cell_formula_units_Z   2
loop_
 _symmetry_equiv_pos_site_id
 _symmetry_equiv_pos_as_xyz
  1  'x, y, z'
loop_
 _atom_site_type_symbol
 _atom_site_label
 _atom_site_symmetry_multiplicity
 _atom_site_fract_x
 _atom_site_fract_y
 _atom_site_fract_z
 _atom_site_occupancy
  B  B0  1  0.805295  0.194705  0.750000  1
  B  B1  1  0.555295  0.444705  0.250000  1
  B  B2  1  0.444705  0.555295  0.750000  1
  B  B3  1  0.194705  0.805295  0.250000  1
  Ce  Ce4  1  0.125000  0.875000  0.750000  1
  Ce  Ce5  1  0.875000  0.125000  0.250000  1
  Ir  Ir6  1  0.754668  0.504668  0.009336  1
  Ir  Ir7  1  0.504668  0.754668  0.509336  1
  Ir  Ir8  1  0.245332  0.495332  0.990664  1
  Ir  Ir9  1  0.495332  0.245332  0.490664  1
