# generated using pymatgen
data_La7Mn8O24
_symmetry_space_group_name_H-M   'P 1'
_cell_length_a   22.03853176
_cell_length_b   14.55707751
_cell_length_c   9.51544483
_cell_angle_alpha   29.62347253
_cell_angle_beta   55.41358794
_cell_angle_gamma   41.28621673
_symmetry_Int_Tables_number   1
_chemical_formula_structural   La7Mn8O24
_chemical_formula_sum   'La14 Mn16 O48'
_cell_volume   960.76834572
_cell_formula_units_Z   2
loop_
 _symmetry_equiv_pos_site_id
 _symmetry_equiv_pos_as_xyz
  1  'x, y, z'
loop_
 _atom_site_type_symbol
 _atom_site_label
 _atom_site_symmetry_multiplicity
 _atom_site_fract_x
 _atom_site_fract_y
 _atom_site_fract_z
 _atom_site_occupancy
  La  La0  1  0.063013  0.003543  0.249728  1
  La  La1  1  0.311067  0.001093  0.266188  1
  La  La2  1  0.063684  0.498574  0.760596  1
  La  La3  1  0.190731  0.498313  0.256788  1
  La  La4  1  0.565668  0.003155  0.251553  1
  La  La5  1  0.312986  0.496896  0.763226  1
  La  La6  1  0.438375  0.499221  0.256703  1
  La  La7  1  0.815006  0.001457  0.254203  1
  La  La8  1  0.567696  0.498607  0.748867  1
  La  La9  1  0.440367  0.000661  0.758075  1
  La  La10  1  0.815698  0.496447  0.765012  1
  La  La11  1  0.943292  0.489621  0.270862  1
  La  La12  1  0.687954  0.001507  0.758191  1
  La  La13  1  0.935442  0.010353  0.743889  1
  Mn  Mn14  1  0.004149  0.997886  0.005254  1
  Mn  Mn15  1  0.126943  0.999159  0.511186  1
  Mn  Mn16  1  0.251404  0.998603  0.006652  1
  Mn  Mn17  1  0.126787  0.495890  0.014170  1
  Mn  Mn18  1  0.375817  0.998041  0.512368  1
  Mn  Mn19  1  0.503482  0.996035  0.009357  1
  Mn  Mn20  1  0.251111  0.504702  0.500350  1
  Mn  Mn21  1  0.375209  0.503997  0.005472  1
  Mn  Mn22  1  0.627644  0.995223  0.514499  1
  Mn  Mn23  1  0.751928  0.004135  0.000561  1
  Mn  Mn24  1  0.502871  0.501999  0.502465  1
  Mn  Mn25  1  0.627300  0.501379  0.008174  1
  Mn  Mn26  1  0.874292  0.005120  0.505239  1
  Mn  Mn27  1  0.751751  0.500854  0.503602  1
  Mn  Mn28  1  0.874555  0.502085  0.009615  1
  Mn  Mn29  1  0.004385  0.494874  0.509587  1
  O  O30  1  0.173124  0.058207  0.199614  1
  O  O31  1  0.102982  0.290670  0.230588  1
  O  O32  1  0.010380  0.235466  0.765875  1
  O  O33  1  0.046064  0.569085  0.187704  1
  O  O34  1  0.248203  0.244464  0.275180  1
  O  O35  1  0.131267  0.299201  0.689614  1
  O  O36  1  0.425290  0.052413  0.206097  1
  O  O37  1  0.118632  0.717180  0.322032  1
  O  O38  1  0.359036  0.272629  0.259776  1
  O  O39  1  0.007518  0.783616  0.693272  1
  O  O40  1  0.273903  0.216455  0.769402  1
  O  O41  1  0.200867  0.444118  0.814872  1
  O  O42  1  0.309879  0.514925  0.242252  1
  O  O43  1  0.233170  0.764015  0.287384  1
  O  O44  1  0.496824  0.219815  0.308821  1
  O  O45  1  0.144578  0.729004  0.747255  1
  O  O46  1  0.381980  0.280118  0.705924  1
  O  O47  1  0.071449  0.939031  0.817653  1
  O  O48  1  0.678052  0.055374  0.200402  1
  O  O49  1  0.366153  0.726984  0.316327  1
  O  O50  1  0.604795  0.283773  0.244809  1
  O  O51  1  0.262378  0.760474  0.704015  1
  O  O52  1  0.519730  0.227130  0.755626  1
  O  O53  1  0.453320  0.447742  0.808683  1
  O  O54  1  0.540410  0.558359  0.199778  1
  O  O55  1  0.476906  0.783970  0.256378  1
  O  O56  1  0.747408  0.200721  0.325325  1
  O  O57  1  0.401753  0.716241  0.758080  1
  O  O58  1  0.630387  0.256134  0.739465  1
  O  O59  1  0.338332  0.941357  0.815360  1
  O  O60  1  0.923529  0.050769  0.207234  1
  O  O61  1  0.616275  0.739369  0.311019  1
  O  O62  1  0.868371  0.264398  0.249107  1
  O  O63  1  0.512493  0.773233  0.698464  1
  O  O64  1  0.775825  0.209131  0.784416  1
  O  O65  1  0.705567  0.441927  0.815011  1
  O  O66  1  0.807258  0.560856  0.197290  1
  O  O67  1  0.733958  0.771463  0.266873  1
  O  O68  1  0.994172  0.224611  0.311822  1
  O  O69  1  0.645576  0.735830  0.727702  1
  O  O70  1  0.884486  0.275603  0.702874  1
  O  O71  1  0.568917  0.985357  0.772253  1
  O  O72  1  0.871221  0.716185  0.321538  1
  O  O73  1  0.760046  0.782954  0.692902  1
  O  O74  1  0.955065  0.449351  0.807524  1
  O  O75  1  0.979641  0.780652  0.253348  1
  O  O76  1  0.899080  0.719249  0.761636  1
  O  O77  1  0.832645  0.930959  0.826995  1
