# generated using pymatgen
data_La5Mn5O16
_symmetry_space_group_name_H-M   'P 1'
_cell_length_a   22.06219300
_cell_length_b   14.54495114
_cell_length_c   9.49980508
_cell_angle_alpha   29.75480977
_cell_angle_beta   55.65340284
_cell_angle_gamma   41.45187927
_symmetry_Int_Tables_number   1
_chemical_formula_structural   La5Mn5O16
_chemical_formula_sum   'La15 Mn15 O48'
_cell_volume   966.19345911
_cell_formula_units_Z   3
loop_
 _symmetry_equiv_pos_site_id
 _symmetry_equiv_pos_as_xyz
  1  'x, y, z'
loop_
 _atom_site_type_symbol
 _atom_site_label
 _atom_site_symmetry_multiplicity
 _atom_site_fract_x
 _atom_site_fract_y
 _atom_site_fract_z
 _atom_site_occupancy
  La  La0  1  0.057031  0.999281  0.231412  1
  La  La1  1  0.181081  0.001781  0.750829  1
  La  La2  1  0.316366  0.986985  0.260412  1
  La  La3  1  0.059397  0.517237  0.723304  1
  La  La4  1  0.181367  0.519960  0.237696  1
  La  La5  1  0.442527  0.996461  0.738309  1
  La  La6  1  0.319134  0.484667  0.766023  1
  La  La7  1  0.440267  0.501430  0.242308  1
  La  La8  1  0.685234  0.002018  0.758227  1
  La  La9  1  0.817851  0.998441  0.247899  1
  La  La10  1  0.562220  0.499367  0.753889  1
  La  La11  1  0.687130  0.503884  0.245694  1
  La  La12  1  0.938979  0.007347  0.762133  1
  La  La13  1  0.811678  0.493758  0.749505  1
  La  La14  1  0.936113  0.486393  0.281362  1
  Mn  Mn15  1  0.124890  0.001960  0.491455  1
  Mn  Mn16  1  0.249520  0.999766  0.000800  1
  Mn  Mn17  1  0.125373  0.500243  0.998374  1
  Mn  Mn18  1  0.374226  0.001471  0.499403  1
  Mn  Mn19  1  0.500534  0.000372  0.000600  1
  Mn  Mn20  1  0.253090  0.491302  0.508790  1
  Mn  Mn21  1  0.376856  0.495728  0.002104  1
  Mn  Mn22  1  0.627217  0.997493  0.495514  1
  Mn  Mn23  1  0.748736  0.001202  0.001599  1
  Mn  Mn24  1  0.500773  0.494714  0.507936  1
  Mn  Mn25  1  0.624428  0.504011  0.995204  1
  Mn  Mn26  1  0.874405  0.999094  0.507327  1
  Mn  Mn27  1  0.744887  0.513223  0.490521  1
  Mn  Mn28  1  0.875145  0.498541  0.001275  1
  Mn  Mn29  1  0.000044  0.501008  0.498939  1
  O  O30  1  0.171005  0.077127  0.171291  1
  O  O31  1  0.100639  0.281212  0.256105  1
  O  O32  1  0.022121  0.238741  0.724643  1
  O  O33  1  0.046582  0.573497  0.176782  1
  O  O34  1  0.238792  0.221563  0.314668  1
  O  O35  1  0.132378  0.286595  0.683367  1
  O  O36  1  0.414493  0.054813  0.195422  1
  O  O37  1  0.129121  0.697404  0.326243  1
  O  O38  1  0.348617  0.286091  0.247060  1
  O  O39  1  0.011244  0.774411  0.683532  1
  O  O40  1  0.279533  0.209635  0.753753  1
  O  O41  1  0.207339  0.427262  0.819712  1
  O  O42  1  0.295828  0.561428  0.189823  1
  O  O43  1  0.225602  0.780407  0.252342  1
  O  O44  1  0.488957  0.238209  0.304855  1
  O  O45  1  0.152292  0.715406  0.743364  1
  O  O46  1  0.384979  0.282614  0.682709  1
  O  O47  1  0.080852  0.944955  0.785084  1
  O  O48  1  0.681330  0.066132  0.178443  1
  O  O49  1  0.365446  0.720616  0.310356  1
  O  O50  1  0.605661  0.276043  0.252331  1
  O  O51  1  0.256600  0.780602  0.688933  1
  O  O52  1  0.518215  0.233433  0.725998  1
  O  O53  1  0.443105  0.481762  0.768222  1
  O  O54  1  0.549522  0.555393  0.194257  1
  O  O55  1  0.477942  0.786467  0.230401  1
  O  O56  1  0.742578  0.212991  0.325618  1
  O  O57  1  0.394917  0.722696  0.751238  1
  O  O58  1  0.634844  0.280016  0.685605  1
  O  O59  1  0.324242  0.941547  0.813849  1
  O  O60  1  0.915697  0.062348  0.208479  1
  O  O61  1  0.618113  0.704441  0.314522  1
  O  O62  1  0.852196  0.276386  0.260745  1
  O  O63  1  0.501121  0.762884  0.730209  1
  O  O64  1  0.772605  0.220719  0.748328  1
  O  O65  1  0.702488  0.437027  0.815973  1
  O  O66  1  0.794914  0.563216  0.187394  1
  O  O67  1  0.737094  0.770875  0.242769  1
  O  O68  1  0.990532  0.222495  0.313265  1
  O  O69  1  0.651775  0.702348  0.782954  1
  O  O70  1  0.870008  0.294768  0.685314  1
  O  O71  1  0.578889  0.943657  0.804631  1
  O  O72  1  0.868493  0.714422  0.317153  1
  O  O73  1  0.760071  0.777308  0.689333  1
  O  O74  1  0.953790  0.430276  0.818611  1
  O  O75  1  0.979146  0.760207  0.275422  1
  O  O76  1  0.897637  0.720517  0.746883  1
  O  O77  1  0.831660  0.927896  0.823169  1
