# generated using pymatgen
data_Ce(BRu)2
_symmetry_space_group_name_H-M   'P 1'
_cell_length_a   5.55951478
_cell_length_b   5.55951478
_cell_length_c   5.98982145
_cell_angle_alpha   108.97828269
_cell_angle_beta   108.97828273
_cell_angle_gamma   107.41184250
_symmetry_Int_Tables_number   1
_chemical_formula_structural   Ce(BRu)2
_chemical_formula_sum   'Ce2 B4 Ru4'
_cell_volume   147.60213900
_cell_formula_units_Z   2
loop_
 _symmetry_equiv_pos_site_id
 _symmetry_equiv_pos_as_xyz
  1  'x, y, z'
loop_
 _atom_site_type_symbol
 _atom_site_label
 _atom_site_symmetry_multiplicity
 _atom_site_fract_x
 _atom_site_fract_y
 _atom_site_fract_z
 _atom_site_occupancy
  B  B0  1  0.933656  0.066344  0.500000  1
  B  B1  1  0.566344  0.433656  0.500000  1
  B  B2  1  0.683638  0.316362  0.000000  1
  B  B3  1  0.316362  0.683638  0.000000  1
  Ru  Ru4  1  0.611940  0.111940  0.223880  1
  Ru  Ru5  1  0.888060  0.388060  0.776120  1
  Ru  Ru6  1  0.361969  0.361969  0.723939  1
  Ru  Ru7  1  0.638031  0.638031  0.276061  1
  Ce  Ce8  1  0.250000  0.750000  0.500000  1
  Ce  Ce9  1  0.000000  0.000000  0.000000  1
