# generated using pymatgen
data_La8Mn7O24
_symmetry_space_group_name_H-M   'P 1'
_cell_length_a   22.08502183
_cell_length_b   14.52151160
_cell_length_c   9.46897691
_cell_angle_alpha   29.93228061
_cell_angle_beta   55.81032025
_cell_angle_gamma   41.60944509
_symmetry_Int_Tables_number   1
_chemical_formula_structural   La8Mn7O24
_chemical_formula_sum   'La16 Mn14 O48'
_cell_volume   971.71691082
_cell_formula_units_Z   2
loop_
 _symmetry_equiv_pos_site_id
 _symmetry_equiv_pos_as_xyz
  1  'x, y, z'
loop_
 _atom_site_type_symbol
 _atom_site_label
 _atom_site_symmetry_multiplicity
 _atom_site_fract_x
 _atom_site_fract_y
 _atom_site_fract_z
 _atom_site_occupancy
  La  La0  1  0.068359  0.000705  0.264348  1
  La  La1  1  0.306900  0.999168  0.254407  1
  La  La2  1  0.067210  0.480608  0.775040  1
  La  La3  1  0.182780  0.519403  0.224973  1
  La  La4  1  0.565537  0.981303  0.278054  1
  La  La5  1  0.306219  0.517603  0.742742  1
  La  La6  1  0.444575  0.497086  0.249344  1
  La  La7  1  0.181630  0.999298  0.735654  1
  La  La8  1  0.807245  0.019640  0.236805  1
  La  La9  1  0.567321  0.501255  0.765439  1
  La  La10  1  0.682674  0.498766  0.234536  1
  La  La11  1  0.442760  0.980366  0.763176  1
  La  La12  1  0.805416  0.502937  0.750629  1
  La  La13  1  0.943778  0.482426  0.257226  1
  La  La14  1  0.684455  0.018733  0.721898  1
  La  La15  1  0.943106  0.000824  0.745604  1
  Mn  Mn16  1  0.999786  0.996139  0.011189  1
  Mn  Mn17  1  0.250216  0.003837  0.988843  1
  Mn  Mn18  1  0.125005  0.499941  0.000104  1
  Mn  Mn19  1  0.372548  0.005574  0.493799  1
  Mn  Mn20  1  0.497876  0.001474  0.001835  1
  Mn  Mn21  1  0.251961  0.497994  0.498454  1
  Mn  Mn22  1  0.377553  0.496205  0.002164  1
  Mn  Mn23  1  0.625024  0.999931  0.500026  1
  Mn  Mn24  1  0.752122  0.998523  0.998152  1
  Mn  Mn25  1  0.499876  0.497321  0.509946  1
  Mn  Mn26  1  0.877447  0.994477  0.506167  1
  Mn  Mn27  1  0.750124  0.502625  0.490130  1
  Mn  Mn28  1  0.872460  0.503756  0.997885  1
  Mn  Mn29  1  0.998065  0.501918  0.501652  1
  O  O30  1  0.179507  0.056944  0.173071  1
  O  O31  1  0.100884  0.301417  0.222225  1
  O  O32  1  0.024037  0.217773  0.749615  1
  O  O33  1  0.044716  0.565992  0.189241  1
  O  O34  1  0.241656  0.206908  0.326568  1
  O  O35  1  0.132577  0.289896  0.675775  1
  O  O36  1  0.415650  0.077074  0.176532  1
  O  O37  1  0.117420  0.710114  0.324226  1
  O  O38  1  0.347044  0.288128  0.244915  1
  O  O39  1  0.008349  0.793044  0.673485  1
  O  O40  1  0.277925  0.213021  0.748705  1
  O  O41  1  0.205278  0.433981  0.810803  1
  O  O42  1  0.294004  0.569904  0.176912  1
  O  O43  1  0.225960  0.782226  0.250408  1
  O  O44  1  0.491063  0.212678  0.321823  1
  O  O45  1  0.149116  0.698528  0.777850  1
  O  O46  1  0.384773  0.284897  0.676536  1
  O  O47  1  0.070488  0.943057  0.826935  1
  O  O48  1  0.673035  0.071050  0.174546  1
  O  O49  1  0.366655  0.719032  0.317039  1
  O  O50  1  0.602881  0.261596  0.273421  1
  O  O51  1  0.269182  0.756715  0.706873  1
  O  O52  1  0.523509  0.219396  0.746330  1
  O  O53  1  0.458363  0.417463  0.833823  1
  O  O54  1  0.542222  0.556800  0.213627  1
  O  O55  1  0.473231  0.782205  0.258920  1
  O  O56  1  0.753757  0.196377  0.329429  1
  O  O57  1  0.402092  0.711822  0.756047  1
  O  O58  1  0.636452  0.274930  0.684504  1
  O  O59  1  0.331709  0.929363  0.819274  1
  O  O60  1  0.918284  0.070657  0.180708  1
  O  O61  1  0.613541  0.725097  0.315476  1
  O  O62  1  0.847914  0.288182  0.243956  1
  O  O63  1  0.496241  0.803659  0.670530  1
  O  O64  1  0.776772  0.217817  0.741036  1
  O  O65  1  0.707778  0.443207  0.786351  1
  O  O66  1  0.791637  0.582584  0.166123  1
  O  O67  1  0.726490  0.780619  0.253647  1
  O  O68  1  0.980818  0.243295  0.293121  1
  O  O69  1  0.647118  0.738390  0.726578  1
  O  O70  1  0.883342  0.280992  0.682931  1
  O  O71  1  0.576974  0.928945  0.825428  1
  O  O72  1  0.865231  0.715125  0.323438  1
  O  O73  1  0.758946  0.787298  0.678166  1
  O  O74  1  0.955999  0.430106  0.823082  1
  O  O75  1  0.972071  0.786994  0.251271  1
  O  O76  1  0.902940  0.711916  0.755037  1
  O  O77  1  0.834336  0.922958  0.823435  1
