# generated using pymatgen
data_La16Mn15O48
_symmetry_space_group_name_H-M   'P 1'
_cell_length_a   5.53584725
_cell_length_b   14.82537356
_cell_length_c   12.42081779
_cell_angle_alpha   94.45019571
_cell_angle_beta   101.68129845
_cell_angle_gamma   79.59944918
_symmetry_Int_Tables_number   1
_chemical_formula_structural   La16Mn15O48
_chemical_formula_sum   'La16 Mn15 O48'
_cell_volume   980.98268854
_cell_formula_units_Z   1
loop_
 _symmetry_equiv_pos_site_id
 _symmetry_equiv_pos_as_xyz
  1  'x, y, z'
loop_
 _atom_site_type_symbol
 _atom_site_label
 _atom_site_symmetry_multiplicity
 _atom_site_fract_x
 _atom_site_fract_y
 _atom_site_fract_z
 _atom_site_occupancy
  La  La0  1  0.402456  0.029770  0.857467  1
  La  La1  1  0.846605  0.206459  0.910655  1
  La  La2  1  0.280790  0.405299  0.968517  1
  La  La3  1  0.656911  0.280987  0.595359  1
  La  La4  1  0.219536  0.093150  0.532212  1
  La  La5  1  0.963533  0.854164  0.791847  1
  La  La6  1  0.529367  0.657952  0.718036  1
  La  La7  1  0.906922  0.531337  0.343681  1
  La  La8  1  0.036467  0.145836  0.208153  1
  La  La9  1  0.470633  0.342048  0.281964  1
  La  La10  1  0.093078  0.468663  0.656319  1
  La  La11  1  0.780464  0.906850  0.467788  1
  La  La12  1  0.343089  0.719013  0.404641  1
  La  La13  1  0.719210  0.594701  0.031483  1
  La  La14  1  0.597544  0.970230  0.142533  1
  La  La15  1  0.153395  0.793541  0.089345  1
  Mn  Mn16  1  0.811664  0.062520  0.687138  1
  Mn  Mn17  1  0.688749  0.436413  0.813463  1
  Mn  Mn18  1  0.249846  0.249618  0.750230  1
  Mn  Mn19  1  0.623985  0.124858  0.374764  1
  Mn  Mn20  1  0.563418  0.810676  0.936923  1
  Mn  Mn21  1  0.937850  0.688716  0.563874  1
  Mn  Mn22  1  0.436582  0.189324  0.063077  1
  Mn  Mn23  1  0.126148  0.625251  0.876242  1
  Mn  Mn24  1  0.873852  0.374749  0.123758  1
  Mn  Mn25  1  0.500000  0.500000  0.500000  1
  Mn  Mn26  1  0.062150  0.311284  0.436126  1
  Mn  Mn27  1  0.311251  0.563587  0.186537  1
  Mn  Mn28  1  0.376015  0.875142  0.625236  1
  Mn  Mn29  1  0.750154  0.750382  0.249770  1
  Mn  Mn30  1  0.188336  0.937480  0.312862  1
  O  O31  1  0.900647  0.013229  0.826627  1
  O  O32  1  0.790707  0.378466  0.960472  1
  O  O33  1  0.571584  0.165434  0.741571  1
  O  O34  1  0.948039  0.038683  0.371107  1
  O  O35  1  0.713716  0.119504  0.542832  1
  O  O36  1  0.927742  0.336979  0.754083  1
  O  O37  1  0.335247  0.244893  0.914644  1
  O  O38  1  0.955446  0.513586  0.861086  1
  O  O39  1  0.454992  0.015728  0.364584  1
  O  O40  1  0.083784  0.139069  0.737149  1
  O  O41  1  0.416715  0.361355  0.763533  1
  O  O42  1  0.790349  0.235671  0.392297  1
  O  O43  1  0.449010  0.538701  0.869343  1
  O  O44  1  0.823376  0.414699  0.493735  1
  O  O45  1  0.538189  0.132584  0.209794  1
  O  O46  1  0.165512  0.256141  0.585907  1
  O  O47  1  0.958488  0.369949  0.288662  1
  O  O48  1  0.793197  0.708385  0.881262  1
  O  O49  1  0.584753  0.494797  0.664325  1
  O  O50  1  0.299042  0.209604  0.378933  1
  O  O51  1  0.664396  0.094280  0.010208  1
  O  O52  1  0.814277  0.884091  0.977490  1
  O  O53  1  0.332170  0.389413  0.485813  1
  O  O54  1  0.707508  0.262414  0.110302  1
  O  O55  1  0.292492  0.737586  0.889698  1
  O  O56  1  0.667830  0.610587  0.514188  1
  O  O57  1  0.185723  0.115909  0.022510  1
  O  O58  1  0.041512  0.630051  0.711338  1
  O  O59  1  0.700958  0.790396  0.621067  1
  O  O60  1  0.335604  0.905720  0.989792  1
  O  O61  1  0.415247  0.505203  0.335675  1
  O  O62  1  0.206803  0.291615  0.118738  1
  O  O63  1  0.461811  0.867416  0.790206  1
  O  O64  1  0.834488  0.743859  0.414093  1
  O  O65  1  0.176624  0.585301  0.506265  1
  O  O66  1  0.550990  0.461299  0.130657  1
  O  O67  1  0.583285  0.638645  0.236467  1
  O  O68  1  0.209651  0.764329  0.607703  1
  O  O69  1  0.545008  0.984272  0.635416  1
  O  O70  1  0.044554  0.486414  0.138914  1
  O  O71  1  0.916216  0.860931  0.262851  1
  O  O72  1  0.664753  0.755107  0.085356  1
  O  O73  1  0.286284  0.880496  0.457168  1
  O  O74  1  0.072258  0.663021  0.245917  1
  O  O75  1  0.209293  0.621534  0.039528  1
  O  O76  1  0.051961  0.961317  0.628893  1
  O  O77  1  0.428416  0.834566  0.258429  1
  O  O78  1  0.099353  0.986771  0.173373  1
