# generated using pymatgen
data_La16Mn15O48
_symmetry_space_group_name_H-M   'P 1'
_cell_length_a   5.53402496
_cell_length_b   14.82429315
_cell_length_c   12.42825816
_cell_angle_alpha   94.32448242
_cell_angle_beta   101.63697939
_cell_angle_gamma   79.60414282
_symmetry_Int_Tables_number   1
_chemical_formula_structural   La16Mn15O48
_chemical_formula_sum   'La16 Mn15 O48'
_cell_volume   981.43364417
_cell_formula_units_Z   1
loop_
 _symmetry_equiv_pos_site_id
 _symmetry_equiv_pos_as_xyz
  1  'x, y, z'
loop_
 _atom_site_type_symbol
 _atom_site_label
 _atom_site_symmetry_multiplicity
 _atom_site_fract_x
 _atom_site_fract_y
 _atom_site_fract_z
 _atom_site_occupancy
  La  La0  1  0.847121  0.205342  0.909660  1
  La  La1  1  0.404288  0.027254  0.856410  1
  La  La2  1  0.280620  0.405371  0.967685  1
  La  La3  1  0.656231  0.280455  0.595228  1
  La  La4  1  0.218551  0.093733  0.532163  1
  La  La5  1  0.964140  0.853199  0.792381  1
  La  La6  1  0.530080  0.656994  0.718845  1
  La  La7  1  0.906605  0.531604  0.343361  1
  La  La8  1  0.093395  0.468396  0.656639  1
  La  La9  1  0.469920  0.343006  0.281155  1
  La  La10  1  0.035860  0.146801  0.207619  1
  La  La11  1  0.781449  0.906267  0.467837  1
  La  La12  1  0.719380  0.594629  0.032315  1
  La  La13  1  0.343769  0.719545  0.404772  1
  La  La14  1  0.595712  0.972746  0.143590  1
  La  La15  1  0.152879  0.794658  0.090340  1
  Mn  Mn16  1  0.811316  0.062414  0.686934  1
  Mn  Mn17  1  0.688595  0.436222  0.813378  1
  Mn  Mn18  1  0.251038  0.249945  0.750392  1
  Mn  Mn19  1  0.625818  0.125113  0.374845  1
  Mn  Mn20  1  0.876636  0.374439  0.125864  1
  Mn  Mn21  1  0.562807  0.810190  0.936521  1
  Mn  Mn22  1  0.937719  0.688624  0.563843  1
  Mn  Mn23  1  0.123364  0.625561  0.874136  1
  Mn  Mn24  1  0.500000  0.500000  0.500000  1
  Mn  Mn25  1  0.062281  0.311376  0.436157  1
  Mn  Mn26  1  0.437193  0.189810  0.063479  1
  Mn  Mn27  1  0.374182  0.874887  0.625155  1
  Mn  Mn28  1  0.311405  0.563778  0.186622  1
  Mn  Mn29  1  0.748962  0.750056  0.249608  1
  Mn  Mn30  1  0.188684  0.937586  0.313066  1
  O  O31  1  0.885397  0.053645  0.839944  1
  O  O32  1  0.981449  0.172835  0.699885  1
  O  O33  1  0.731499  0.067232  0.524690  1
  O  O34  1  0.351606  0.193986  0.897666  1
  O  O35  1  0.773999  0.432804  0.978263  1
  O  O36  1  0.489760  0.150547  0.689971  1
  O  O37  1  0.861898  0.022486  0.316833  1
  O  O38  1  0.524583  0.325150  0.800177  1
  O  O39  1  0.892948  0.202501  0.425972  1
  O  O40  1  0.855520  0.547744  0.825991  1
  O  O41  1  0.357144  0.047781  0.329346  1
  O  O42  1  0.885246  0.728473  0.932734  1
  O  O43  1  0.601692  0.443116  0.648249  1
  O  O44  1  0.978442  0.316187  0.271513  1
  O  O45  1  0.014093  0.353956  0.804757  1
  O  O46  1  0.387558  0.227748  0.432632  1
  O  O47  1  0.738956  0.110266  0.052744  1
  O  O48  1  0.740313  0.397615  0.442563  1
  O  O49  1  0.365566  0.522181  0.818093  1
  O  O50  1  0.148687  0.307055  0.602661  1
  O  O51  1  0.522190  0.182097  0.226807  1
  O  O52  1  0.403431  0.700038  0.921721  1
  O  O53  1  0.770276  0.576766  0.548631  1
  O  O54  1  0.275081  0.086819  0.050434  1
  O  O55  1  0.724919  0.913181  0.949566  1
  O  O56  1  0.229724  0.423234  0.451369  1
  O  O57  1  0.596569  0.299962  0.078279  1
  O  O58  1  0.477810  0.817903  0.773193  1
  O  O59  1  0.851313  0.692945  0.397339  1
  O  O60  1  0.259688  0.602385  0.557437  1
  O  O61  1  0.634434  0.477819  0.181907  1
  O  O62  1  0.261044  0.889734  0.947256  1
  O  O63  1  0.612442  0.772252  0.567368  1
  O  O64  1  0.985907  0.646044  0.195243  1
  O  O65  1  0.021558  0.683813  0.728487  1
  O  O66  1  0.398308  0.556884  0.351751  1
  O  O67  1  0.114754  0.271527  0.067266  1
  O  O68  1  0.642856  0.952218  0.670654  1
  O  O69  1  0.144480  0.452255  0.174009  1
  O  O70  1  0.475417  0.674850  0.199823  1
  O  O71  1  0.107052  0.797499  0.574028  1
  O  O72  1  0.226001  0.567195  0.021737  1
  O  O73  1  0.138102  0.977514  0.683167  1
  O  O74  1  0.510240  0.849453  0.310029  1
  O  O75  1  0.268501  0.932768  0.475310  1
  O  O76  1  0.648394  0.806014  0.102334  1
  O  O77  1  0.018551  0.827165  0.300115  1
  O  O78  1  0.114603  0.946355  0.160056  1
