# generated using pymatgen
data_La4Mo7O27
_symmetry_space_group_name_H-M   'P 1'
_cell_length_a   7.39160783
_cell_length_b   14.34215180
_cell_length_c   23.31370751
_cell_angle_alpha   90.00000000
_cell_angle_beta   90.00000000
_cell_angle_gamma   90.00000000
_symmetry_Int_Tables_number   1
_chemical_formula_structural   La4Mo7O27
_chemical_formula_sum   'La16 Mo28 O108'
_cell_volume   2471.52253851
_cell_formula_units_Z   4
loop_
 _symmetry_equiv_pos_site_id
 _symmetry_equiv_pos_as_xyz
  1  'x, y, z'
loop_
 _atom_site_type_symbol
 _atom_site_label
 _atom_site_symmetry_multiplicity
 _atom_site_fract_x
 _atom_site_fract_y
 _atom_site_fract_z
 _atom_site_occupancy
  La  La0  1  0.016589  0.840419  0.112446  1
  La  La1  1  0.996396  0.402784  0.848722  1
  La  La2  1  0.016589  0.659581  0.612446  1
  La  La3  1  0.508956  0.701139  0.105552  1
  La  La4  1  0.983411  0.340419  0.112446  1
  La  La5  1  0.485523  0.538800  0.845924  1
  La  La6  1  0.508956  0.798861  0.605552  1
  La  La7  1  0.003604  0.597216  0.348722  1
  La  La8  1  0.983411  0.159581  0.612446  1
  La  La9  1  0.514477  0.038800  0.845924  1
  La  La10  1  0.491044  0.201139  0.105552  1
  La  La11  1  0.491044  0.298861  0.605552  1
  La  La12  1  0.003604  0.902784  0.848722  1
  La  La13  1  0.996396  0.097216  0.348722  1
  La  La14  1  0.485523  0.961200  0.345924  1
  La  La15  1  0.514477  0.461200  0.345924  1
  Mo  Mo16  1  0.985486  0.867700  0.289855  1
  Mo  Mo17  1  0.510520  0.808033  0.791033  1
  Mo  Mo18  1  0.322852  0.073644  0.500319  1
  Mo  Mo19  1  0.677148  0.926356  0.000319  1
  Mo  Mo20  1  0.322852  0.426356  0.000319  1
  Mo  Mo21  1  0.787871  0.977197  0.486410  1
  Mo  Mo22  1  0.504596  0.432968  0.170922  1
  Mo  Mo23  1  0.677148  0.573644  0.500319  1
  Mo  Mo24  1  0.812362  0.190368  0.966192  1
  Mo  Mo25  1  0.510520  0.691967  0.291033  1
  Mo  Mo26  1  0.187638  0.809632  0.466192  1
  Mo  Mo27  1  0.014514  0.132300  0.789855  1
  Mo  Mo28  1  0.489480  0.308033  0.791033  1
  Mo  Mo29  1  0.992885  0.613670  0.167252  1
  Mo  Mo30  1  0.489480  0.191967  0.291033  1
  Mo  Mo31  1  0.495404  0.567032  0.670922  1
  Mo  Mo32  1  0.992885  0.886330  0.667252  1
  Mo  Mo33  1  0.007115  0.386330  0.667252  1
  Mo  Mo34  1  0.504596  0.067032  0.670922  1
  Mo  Mo35  1  0.212129  0.477197  0.486410  1
  Mo  Mo36  1  0.007115  0.113670  0.167252  1
  Mo  Mo37  1  0.812362  0.309632  0.466192  1
  Mo  Mo38  1  0.187638  0.690368  0.966192  1
  Mo  Mo39  1  0.495404  0.932968  0.170922  1
  Mo  Mo40  1  0.985486  0.632300  0.789855  1
  Mo  Mo41  1  0.212129  0.022803  0.986410  1
  Mo  Mo42  1  0.014514  0.367700  0.289855  1
  Mo  Mo43  1  0.787871  0.522803  0.986410  1
  O  O44  1  0.761028  0.506591  0.908353  1
  O  O45  1  0.149863  0.566356  0.832639  1
  O  O46  1  0.516358  0.702524  0.831411  1
  O  O47  1  0.342255  0.398017  0.528089  1
  O  O48  1  0.942655  0.344618  0.217974  1
  O  O49  1  0.526464  0.547527  0.142339  1
  O  O50  1  0.718258  0.890467  0.160503  1
  O  O51  1  0.245587  0.762285  0.535530  1
  O  O52  1  0.567573  0.069817  0.489949  1
  O  O53  1  0.626569  0.368994  0.434515  1
  O  O54  1  0.321120  0.391006  0.816378  1
  O  O55  1  0.208297  0.441685  0.293611  1
  O  O56  1  0.208297  0.058315  0.793611  1
  O  O57  1  0.982529  0.885002  0.472416  1
  O  O58  1  0.733486  0.676689  0.543333  1
  O  O59  1  0.373431  0.631006  0.934515  1
  O  O60  1  0.850137  0.066356  0.832639  1
  O  O61  1  0.474938  0.217242  0.216382  1
  O  O62  1  0.199494  0.829542  0.647650  1
  O  O63  1  0.473536  0.047527  0.142339  1
  O  O64  1  0.063140  0.259074  0.323499  1
  O  O65  1  0.057345  0.655382  0.717974  1
  O  O66  1  0.800506  0.170458  0.147650  1
  O  O67  1  0.718258  0.609533  0.660503  1
  O  O68  1  0.678880  0.608994  0.316378  1
  O  O69  1  0.245587  0.737715  0.035530  1
  O  O70  1  0.063140  0.240926  0.823499  1
  O  O71  1  0.057345  0.844618  0.217974  1
  O  O72  1  0.870466  0.286346  0.922602  1
  O  O73  1  0.779886  0.571192  0.429721  1
  O  O74  1  0.037646  0.003251  0.134175  1
  O  O75  1  0.266514  0.323311  0.043333  1
  O  O76  1  0.525062  0.717242  0.216382  1
  O  O77  1  0.321120  0.108994  0.316378  1
  O  O78  1  0.919378  0.062280  0.522793  1
  O  O79  1  0.267744  0.973041  0.538777  1
  O  O80  1  0.567573  0.430183  0.989949  1
  O  O81  1  0.657745  0.601983  0.028089  1
  O  O82  1  0.975585  0.598536  0.242625  1
  O  O83  1  0.483642  0.297476  0.331411  1
  O  O84  1  0.266514  0.176689  0.543333  1
  O  O85  1  0.870466  0.213654  0.422602  1
  O  O86  1  0.516358  0.797476  0.331411  1
  O  O87  1  0.199494  0.670458  0.147650  1
  O  O88  1  0.129534  0.786346  0.922602  1
  O  O89  1  0.942655  0.155382  0.717974  1
  O  O90  1  0.474938  0.282758  0.716382  1
  O  O91  1  0.962354  0.503251  0.134175  1
  O  O92  1  0.432427  0.930183  0.989949  1
  O  O93  1  0.129534  0.713654  0.422602  1
  O  O94  1  0.238972  0.493409  0.408353  1
  O  O95  1  0.310816  0.627052  0.309304  1
  O  O96  1  0.024415  0.098536  0.242625  1
  O  O97  1  0.310816  0.872948  0.809304  1
  O  O98  1  0.037646  0.496749  0.634175  1
  O  O99  1  0.525062  0.782758  0.716382  1
  O  O100  1  0.169501  0.302379  0.637666  1
  O  O101  1  0.149863  0.933644  0.332639  1
  O  O102  1  0.342255  0.101983  0.028089  1
  O  O103  1  0.238972  0.006591  0.908353  1
  O  O104  1  0.830499  0.802379  0.637666  1
  O  O105  1  0.350776  0.853589  0.129332  1
  O  O106  1  0.435654  0.561257  0.745035  1
  O  O107  1  0.169501  0.197621  0.137666  1
  O  O108  1  0.982529  0.614998  0.972416  1
  O  O109  1  0.754413  0.237715  0.035530  1
  O  O110  1  0.649224  0.353589  0.129332  1
  O  O111  1  0.850137  0.433644  0.332639  1
  O  O112  1  0.689184  0.372948  0.809304  1
  O  O113  1  0.754413  0.262285  0.535530  1
  O  O114  1  0.689184  0.127052  0.309304  1
  O  O115  1  0.649224  0.146411  0.629332  1
  O  O116  1  0.657745  0.898017  0.528089  1
  O  O117  1  0.779886  0.928808  0.929721  1
  O  O118  1  0.432427  0.569817  0.489949  1
  O  O119  1  0.919378  0.437720  0.022793  1
  O  O120  1  0.373431  0.868994  0.434515  1
  O  O121  1  0.800506  0.329542  0.647650  1
  O  O122  1  0.281742  0.390466  0.160503  1
  O  O123  1  0.626569  0.131006  0.934515  1
  O  O124  1  0.564346  0.061257  0.745035  1
  O  O125  1  0.936860  0.740926  0.823499  1
  O  O126  1  0.017471  0.385002  0.472416  1
  O  O127  1  0.962354  0.996749  0.634175  1
  O  O128  1  0.350776  0.646411  0.629332  1
  O  O129  1  0.732256  0.026959  0.038777  1
  O  O130  1  0.080622  0.937720  0.022793  1
  O  O131  1  0.830499  0.697621  0.137666  1
  O  O132  1  0.473536  0.452473  0.642339  1
  O  O133  1  0.975585  0.901464  0.742625  1
  O  O134  1  0.936860  0.759074  0.323499  1
  O  O135  1  0.483642  0.202524  0.831411  1
  O  O136  1  0.435654  0.938743  0.245035  1
  O  O137  1  0.220114  0.428808  0.929721  1
  O  O138  1  0.678880  0.891006  0.816378  1
  O  O139  1  0.733486  0.823311  0.043333  1
  O  O140  1  0.017471  0.114998  0.972416  1
  O  O141  1  0.791703  0.941685  0.293611  1
  O  O142  1  0.024415  0.401464  0.742625  1
  O  O143  1  0.791703  0.558315  0.793611  1
  O  O144  1  0.732256  0.473041  0.538777  1
  O  O145  1  0.080622  0.562280  0.522793  1
  O  O146  1  0.526464  0.952473  0.642339  1
  O  O147  1  0.267744  0.526959  0.038777  1
  O  O148  1  0.564346  0.438743  0.245035  1
  O  O149  1  0.761028  0.993409  0.408353  1
  O  O150  1  0.220114  0.071192  0.429721  1
  O  O151  1  0.281742  0.109534  0.660503  1
