# generated using pymatgen
data_La4Mo2O11
_symmetry_space_group_name_H-M   'P 1'
_cell_length_a   5.76375663
_cell_length_b   13.22185321
_cell_length_c   13.22185321
_cell_angle_alpha   90.00000000
_cell_angle_beta   90.00000000
_cell_angle_gamma   90.00000000
_symmetry_Int_Tables_number   1
_chemical_formula_structural   La4Mo2O11
_chemical_formula_sum   'La16 Mo8 O44'
_cell_volume   1007.60496159
_cell_formula_units_Z   4
loop_
 _symmetry_equiv_pos_site_id
 _symmetry_equiv_pos_as_xyz
  1  'x, y, z'
loop_
 _atom_site_type_symbol
 _atom_site_label
 _atom_site_symmetry_multiplicity
 _atom_site_fract_x
 _atom_site_fract_y
 _atom_site_fract_z
 _atom_site_occupancy
  O  O0  1  0.250000  0.750000  0.750000  1
  O  O1  1  0.750000  0.250000  0.250000  1
  O  O2  1  0.750000  0.750000  0.750000  1
  O  O3  1  0.250000  0.250000  0.250000  1
  O  O4  1  0.667485  -0.001733  0.575493  1
  O  O5  1  0.167485  0.424507  0.498267  1
  O  O6  1  0.167485  0.075493  1.001733  1
  O  O7  1  0.667485  0.501733  0.924507  1
  O  O8  1  0.332515  1.001733  0.424507  1
  O  O9  1  0.832515  0.575493  0.501733  1
  O  O10  1  0.832515  0.924507  -0.001733  1
  O  O11  1  0.332515  0.498267  0.075493  1
  O  O12  1  0.326606  0.831663  0.542676  1
  O  O13  1  0.826606  0.457324  0.331663  1
  O  O14  1  0.826606  0.042676  0.168337  1
  O  O15  1  0.326606  0.668337  0.957324  1
  O  O16  1  0.804194  0.946787  0.374209  1
  O  O17  1  0.673394  0.168337  0.457324  1
  O  O18  1  0.173394  0.957324  0.831663  1
  O  O19  1  0.673394  0.331663  0.042676  1
  O  O20  1  0.195806  0.053213  0.625791  1
  O  O21  1  0.695806  0.374209  0.553213  1
  O  O22  1  0.695806  0.125791  0.946787  1
  O  O23  1  0.195806  0.446787  0.874209  1
  O  O24  1  0.495537  0.700895  0.153196  1
  O  O25  1  0.995537  0.846804  0.200895  1
  O  O26  1  0.995537  0.653196  0.299105  1
  O  O27  1  0.495537  0.799105  0.346804  1
  O  O28  1  0.504463  0.299105  0.846804  1
  O  O29  1  0.004463  0.153196  0.799105  1
  O  O30  1  0.004463  0.346804  0.700895  1
  O  O31  1  0.504463  0.200895  0.653196  1
  O  O32  1  0.193981  0.298643  0.029739  1
  O  O33  1  0.693981  0.970261  0.798643  1
  O  O34  1  0.693981  0.529739  0.701357  1
  O  O35  1  0.193981  0.201357  0.470261  1
  O  O36  1  0.806019  0.701357  0.970261  1
  O  O37  1  0.306019  0.029739  0.201357  1
  O  O38  1  0.306019  0.470261  0.298643  1
  O  O39  1  0.806019  0.798643  0.529739  1
  O  O40  1  0.804194  0.553213  0.125791  1
  O  O41  1  0.304194  0.874209  0.053213  1
  O  O42  1  0.304194  0.625791  0.446787  1
  O  O43  1  0.173394  0.542676  0.668337  1
  Mo  Mo44  1  0.414769  0.102389  0.530181  1
  Mo  Mo45  1  0.914769  0.469819  0.602389  1
  Mo  Mo46  1  0.914769  0.030181  0.897611  1
  Mo  Mo47  1  0.414769  0.397611  0.969819  1
  Mo  Mo48  1  0.585231  0.897611  0.469819  1
  Mo  Mo49  1  0.085231  0.530181  0.397611  1
  Mo  Mo50  1  0.085231  0.969819  0.102389  1
  Mo  Mo51  1  0.585231  0.602389  0.030181  1
  La  La52  1  0.911349  0.199187  0.610850  1
  La  La53  1  0.411349  0.389150  0.699187  1
  La  La54  1  0.411349  0.110850  0.800813  1
  La  La55  1  0.911349  0.300813  0.889150  1
  La  La56  1  0.088651  0.800813  0.389150  1
  La  La57  1  0.588651  0.610850  0.300813  1
  La  La58  1  0.588651  0.889150  0.199187  1
  La  La59  1  0.088651  0.699187  0.110850  1
  La  La60  1  0.502752  0.679019  0.620653  1
  La  La61  1  0.002752  0.379347  0.179019  1
  La  La62  1  0.002752  0.120653  0.320981  1
  La  La63  1  0.502752  0.820981  0.879347  1
  La  La64  1  0.497248  0.320981  0.379347  1
  La  La65  1  0.997248  0.620653  0.820981  1
  La  La66  1  0.997248  0.879347  0.679019  1
  La  La67  1  0.497248  0.179019  0.120653  1
