# generated using pymatgen
data_La16Ni8O33
_symmetry_space_group_name_H-M   'P 1'
_cell_length_a   7.76080608
_cell_length_b   7.76080608
_cell_length_c   13.83523469
_cell_angle_alpha   73.71159224
_cell_angle_beta   73.71159227
_cell_angle_gamma   90.00000000
_symmetry_Int_Tables_number   1
_chemical_formula_structural   La16Ni8O33
_chemical_formula_sum   'La16 Ni8 O33'
_cell_volume   764.94295267
_cell_formula_units_Z   1
loop_
 _symmetry_equiv_pos_site_id
 _symmetry_equiv_pos_as_xyz
  1  'x, y, z'
loop_
 _atom_site_type_symbol
 _atom_site_label
 _atom_site_symmetry_multiplicity
 _atom_site_fract_x
 _atom_site_fract_y
 _atom_site_fract_z
 _atom_site_occupancy
  La  La0  1  0.188545  0.181558  0.136300  1
  La  La1  1  0.314371  0.325707  0.362148  1
  La  La2  1  0.674293  0.176519  0.137852  1
  La  La3  1  0.187124  0.181355  0.639342  1
  La  La4  1  0.175155  0.682142  0.136300  1
  La  La5  1  0.673534  0.179304  0.639342  1
  La  La6  1  0.687854  0.685629  0.137852  1
  La  La7  1  0.180217  0.687799  0.644158  1
  La  La8  1  0.823481  0.312146  0.362148  1
  La  La9  1  0.312201  0.324375  0.855842  1
  La  La10  1  0.317858  0.811455  0.363700  1
  La  La11  1  0.818442  0.824845  0.363700  1
  La  La12  1  0.818645  0.326466  0.860658  1
  La  La13  1  0.331958  0.819783  0.855842  1
  La  La14  1  0.675625  0.668042  0.644158  1
  La  La15  1  0.820696  0.812876  0.860658  1
  Ni  Ni16  1  0.001497  0.001863  0.998202  1
  Ni  Ni17  1  0.997133  0.499537  0.001643  1
  Ni  Ni18  1  0.500300  -0.000065  0.998202  1
  Ni  Ni19  1  0.000065  0.998503  0.501798  1
  Ni  Ni20  1  0.501180  0.002867  0.498357  1
  Ni  Ni21  1  0.501224  0.498820  0.001643  1
  Ni  Ni22  1  0.998137  0.499699  0.501798  1
  Ni  Ni23  1  0.500463  0.498776  0.498357  1
  O  O24  1  0.247487  0.997487  0.005025  1
  O  O25  1  0.066345  0.088449  0.321640  1
  O  O26  1  0.255388  0.004662  0.490031  1
  O  O27  1  0.747389  0.997389  0.005223  1
  O  O28  1  0.002611  0.252611  0.494777  1
  O  O29  1  0.253613  0.503613  0.992774  1
  O  O30  1  0.399775  0.387217  0.178400  1
  O  O31  1  0.612783  0.078175  0.321600  1
  O  O32  1  0.087434  0.111022  0.824939  1
  O  O33  1  0.112015  0.589911  0.321640  1
  O  O34  1  0.510831  0.260831  0.478339  1
  O  O35  1  0.739169  0.489169  0.021661  1
  O  O36  1  0.244737  0.498521  0.508614  1
  O  O37  1  0.002513  0.752513  0.494975  1
  O  O38  1  0.494693  0.744612  0.009969  1
  O  O39  1  0.995338  0.245421  0.009969  1
  O  O40  1  0.587628  0.064039  0.824939  1
  O  O41  1  0.565618  0.600225  0.321600  1
  O  O42  1  0.028034  0.571103  0.830589  1
  O  O43  1  0.921825  0.434383  0.178400  1
  O  O44  1  0.428897  0.358623  0.669411  1
  O  O45  1  0.410089  0.933655  0.178360  1
  O  O46  1  0.496387  0.746387  0.507226  1
  O  O47  1  0.754579  0.505307  0.490031  1
  O  O48  1  0.375000  0.625000  0.750000  1
  O  O49  1  0.007135  0.755263  0.991386  1
  O  O50  1  0.501479  0.253351  0.991386  1
  O  O51  1  0.888978  0.412372  0.675061  1
  O  O52  1  0.911551  0.887985  0.178360  1
  O  O53  1  0.401693  0.971966  0.669411  1
  O  O54  1  0.641377  0.598307  0.830589  1
  O  O55  1  0.746649  0.992865  0.508614  1
  O  O56  1  0.935961  0.912566  0.675061  1
