# generated using pymatgen
data_La8Ni4O17
_symmetry_space_group_name_H-M   'P 1'
_cell_length_a   8.81857482
_cell_length_b   8.81857486
_cell_length_c   11.14198702
_cell_angle_alpha   71.80669748
_cell_angle_beta   71.80669740
_cell_angle_gamma   76.89332856
_symmetry_Int_Tables_number   1
_chemical_formula_structural   La8Ni4O17
_chemical_formula_sum   'La16 Ni8 O34'
_cell_volume   773.94922007
_cell_formula_units_Z   2
loop_
 _symmetry_equiv_pos_site_id
 _symmetry_equiv_pos_as_xyz
  1  'x, y, z'
loop_
 _atom_site_type_symbol
 _atom_site_label
 _atom_site_symmetry_multiplicity
 _atom_site_fract_x
 _atom_site_fract_y
 _atom_site_fract_z
 _atom_site_occupancy
  La  La0  1  0.895276  0.392345  0.429003  1
  La  La1  1  0.607654  0.104724  0.570997  1
  La  La2  1  0.896895  0.384181  0.937530  1
  La  La3  1  0.108180  0.604970  0.070339  1
  La  La4  1  0.640102  0.636333  0.679866  1
  La  La5  1  0.365986  0.342394  0.826770  1
  La  La6  1  0.615819  0.103105  0.062470  1
  La  La7  1  0.396651  0.884750  0.437259  1
  La  La8  1  0.863363  0.859600  0.820172  1
  La  La9  1  0.865402  0.842917  0.326609  1
  La  La10  1  0.115250  0.603349  0.562741  1
  La  La11  1  0.363667  0.359898  0.320134  1
  La  La12  1  0.157083  0.134598  0.673391  1
  La  La13  1  0.140400  0.136637  0.179828  1
  La  La14  1  0.657606  0.634014  0.173230  1
  La  La15  1  0.395030  0.891820  0.929661  1
  Ni  Ni16  1  0.000911  0.999089  0.000000  1
  Ni  Ni17  1  0.003654  0.996346  0.500000  1
  Ni  Ni18  1  0.760219  0.247924  0.748172  1
  Ni  Ni19  1  0.752076  0.239781  0.251828  1
  Ni  Ni20  1  0.503857  0.496143  0.000000  1
  Ni  Ni21  1  0.260001  0.748028  0.248354  1
  Ni  Ni22  1  0.251972  0.739999  0.751646  1
  Ni  Ni23  1  0.500817  0.499183  0.500000  1
  O  O24  1  0.120781  0.857078  0.132297  1
  O  O25  1  0.452112  0.885816  0.634185  1
  O  O26  1  0.175219  0.167546  0.413789  1
  O  O27  1  0.066766  0.580835  0.850631  1
  O  O28  1  0.371804  0.618756  0.128136  1
  O  O29  1  0.674313  0.667402  0.915652  1
  O  O30  1  0.907230  0.147052  0.856114  1
  O  O31  1  0.376953  0.122150  0.750282  1
  O  O32  1  0.620009  0.356861  0.632889  1
  O  O33  1  0.951739  0.386564  0.134267  1
  O  O34  1  0.135428  0.873041  0.625154  1
  O  O35  1  0.852948  0.092770  0.143886  1
  O  O36  1  0.148020  0.180758  0.956600  1
  O  O37  1  0.568460  0.079416  0.351341  1
  O  O38  1  0.320388  0.351256  0.543093  1
  O  O39  1  0.877850  0.623047  0.249718  1
  O  O40  1  0.114184  0.547888  0.365815  1
  O  O41  1  0.643139  0.379991  0.367111  1
  O  O42  1  0.819242  0.851980  0.043400  1
  O  O43  1  0.126959  0.864572  0.374846  1
  O  O44  1  0.881165  0.128731  0.372152  1
  O  O45  1  0.871269  0.118835  0.627848  1
  O  O46  1  0.648744  0.679612  0.456907  1
  O  O47  1  0.407286  0.647963  0.356214  1
  O  O48  1  0.381244  0.628196  0.871864  1
  O  O49  1  0.142922  0.879219  0.867703  1
  O  O50  1  0.628618  0.364932  0.874539  1
  O  O51  1  0.613436  0.048261  0.865733  1
  O  O52  1  0.332598  0.325687  0.084348  1
  O  O53  1  0.920584  0.431540  0.648659  1
  O  O54  1  0.832454  0.824781  0.586212  1
  O  O55  1  0.419165  0.933234  0.149369  1
  O  O56  1  0.352037  0.592714  0.643786  1
  O  O57  1  0.635068  0.371381  0.125461  1
