# generated using pymatgen
data_La8Ru4O21
_symmetry_space_group_name_H-M   'P 1'
_cell_length_a   9.94782032
_cell_length_b   9.94782022
_cell_length_c   10.91829123
_cell_angle_alpha   90.00000000
_cell_angle_beta   90.00000000
_cell_angle_gamma   120.00000034
_symmetry_Int_Tables_number   1
_chemical_formula_structural   La8Ru4O21
_chemical_formula_sum   'La16 Ru8 O42'
_cell_volume   935.70977124
_cell_formula_units_Z   2
loop_
 _symmetry_equiv_pos_site_id
 _symmetry_equiv_pos_as_xyz
  1  'x, y, z'
loop_
 _atom_site_type_symbol
 _atom_site_label
 _atom_site_symmetry_multiplicity
 _atom_site_fract_x
 _atom_site_fract_y
 _atom_site_fract_z
 _atom_site_occupancy
  La  La0  1  0.604871  0.000000  0.091255  1
  La  La1  1  0.395129  0.000000  0.591255  1
  La  La2  1  0.000000  0.242668  0.230068  1
  La  La3  1  0.242668  0.242668  0.730068  1
  La  La4  1  1.000000  0.604871  0.091255  1
  La  La5  1  0.757332  0.757332  0.230068  1
  La  La6  1  0.242668  0.000000  0.230068  1
  La  La7  1  0.333333  0.666667  0.883841  1
  La  La8  1  0.333333  0.666667  0.383841  1
  La  La9  1  0.666667  0.333333  0.883841  1
  La  La10  1  0.604871  0.604871  0.591255  1
  La  La11  1  0.000000  0.395129  0.591255  1
  La  La12  1  0.395129  0.395129  0.091255  1
  La  La13  1  0.666667  0.333333  0.383841  1
  La  La14  1  1.000000  0.757332  0.730068  1
  La  La15  1  0.757332  0.000000  0.730068  1
  Ru  Ru16  1  0.355438  0.000000  0.900094  1
  Ru  Ru17  1  1.000000  0.355438  0.900094  1
  Ru  Ru18  1  0.644562  0.644562  0.900094  1
  Ru  Ru19  1  0.000000  0.644562  0.400094  1
  Ru  Ru20  1  0.000000  0.000000  0.998466  1
  Ru  Ru21  1  0.644562  0.000000  0.400094  1
  Ru  Ru22  1  0.000000  0.000000  0.498466  1
  Ru  Ru23  1  0.355438  0.355438  0.400094  1
  O  O24  1  0.725903  0.163186  0.268595  1
  O  O25  1  0.542386  0.700439  0.032987  1
  O  O26  1  0.439004  0.439004  0.878218  1
  O  O27  1  0.562717  0.725903  0.768595  1
  O  O28  1  0.840538  0.840538  0.889504  1
  O  O29  1  0.158178  0.158178  0.113015  1
  O  O30  1  0.437283  0.274097  0.268595  1
  O  O31  1  0.158053  0.457614  0.032987  1
  O  O32  1  0.560996  0.560996  0.378218  1
  O  O33  1  0.274097  0.437283  0.268595  1
  O  O34  1  0.163186  0.437283  0.768595  1
  O  O35  1  0.457614  0.299561  0.532987  1
  O  O36  1  0.700439  0.542386  0.032987  1
  O  O37  1  0.841822  0.841822  0.613015  1
  O  O38  1  0.299561  0.457614  0.532987  1
  O  O39  1  0.836814  0.562717  0.268595  1
  O  O40  1  0.841947  0.542386  0.532987  1
  O  O41  1  0.437283  0.163186  0.768595  1
  O  O42  1  0.159462  0.159462  0.389504  1
  O  O43  1  0.000000  0.159462  0.889504  1
  O  O44  1  0.542386  0.841947  0.532987  1
  O  O45  1  1.000000  0.840538  0.389504  1
  O  O46  1  0.700439  0.158053  0.532987  1
  O  O47  1  0.274097  0.836814  0.768595  1
  O  O48  1  0.158053  0.700439  0.532987  1
  O  O49  1  0.000000  0.439004  0.378218  1
  O  O50  1  0.841947  0.299561  0.032987  1
  O  O51  1  0.841822  0.000000  0.113015  1
  O  O52  1  0.439004  0.000000  0.378218  1
  O  O53  1  1.000000  0.560996  0.878218  1
  O  O54  1  0.163186  0.725903  0.268595  1
  O  O55  1  1.000000  0.158178  0.613015  1
  O  O56  1  0.562717  0.836814  0.268595  1
  O  O57  1  0.000000  0.841822  0.113015  1
  O  O58  1  0.158178  0.000000  0.613015  1
  O  O59  1  0.836814  0.274097  0.768595  1
  O  O60  1  0.560996  0.000000  0.878218  1
  O  O61  1  0.840538  0.000000  0.389504  1
  O  O62  1  0.457614  0.158053  0.032987  1
  O  O63  1  0.725903  0.562717  0.768595  1
  O  O64  1  0.159462  0.000000  0.889504  1
  O  O65  1  0.299561  0.841947  0.032987  1
