# generated using pymatgen
data_La2Ti2O7
_symmetry_space_group_name_H-M   'P 1'
_cell_length_a   5.60438506
_cell_length_b   7.79742340
_cell_length_c   26.23729947
_cell_angle_alpha   90.00000000
_cell_angle_beta   90.00000000
_cell_angle_gamma   90.00000000
_symmetry_Int_Tables_number   1
_chemical_formula_structural   La2Ti2O7
_chemical_formula_sum   'La16 Ti16 O56'
_cell_volume   1146.56377409
_cell_formula_units_Z   8
loop_
 _symmetry_equiv_pos_site_id
 _symmetry_equiv_pos_as_xyz
  1  'x, y, z'
loop_
 _atom_site_type_symbol
 _atom_site_label
 _atom_site_symmetry_multiplicity
 _atom_site_fract_x
 _atom_site_fract_y
 _atom_site_fract_z
 _atom_site_occupancy
  O  O0  1  0.417718  0.390410  0.969471  1
  O  O1  1  0.917718  0.609590  0.030529  1
  O  O2  1  0.417718  0.109590  0.469471  1
  O  O3  1  0.917718  0.890410  0.530529  1
  O  O4  1  0.928728  0.354030  0.946222  1
  O  O5  1  0.428728  0.645970  0.053778  1
  O  O6  1  0.928728  0.145970  0.446222  1
  O  O7  1  0.428728  0.854030  0.553778  1
  O  O8  1  0.297794  0.124906  0.902710  1
  O  O9  1  0.797794  0.875094  0.097291  1
  O  O10  1  0.297794  0.375094  0.402709  1
  O  O11  1  0.797794  0.624906  0.597290  1
  O  O12  1  0.555030  0.428677  0.864769  1
  O  O13  1  0.055030  0.571323  0.135231  1
  O  O14  1  0.555030  0.071323  0.364769  1
  O  O15  1  0.055030  0.928677  0.635231  1
  O  O16  1  0.064043  0.356334  0.841460  1
  O  O17  1  0.564043  0.643666  0.158540  1
  O  O18  1  0.064043  0.143666  0.341460  1
  O  O19  1  0.564043  0.856334  0.658540  1
  O  O20  1  0.705145  0.125053  0.804551  1
  O  O21  1  0.330681  0.125185  0.704000  1
  O  O22  1  0.205145  0.874947  0.195449  1
  O  O23  1  0.205145  0.625053  0.695449  1
  O  O24  1  0.492119  0.408513  0.760498  1
  O  O25  1  0.992119  0.591487  0.239502  1
  O  O26  1  0.492119  0.091487  0.260498  1
  O  O27  1  0.992119  0.908513  0.739502  1
  O  O28  1  0.992293  0.341466  0.739823  1
  O  O29  1  0.492293  0.658534  0.260177  1
  O  O30  1  0.992293  0.158534  0.239823  1
  O  O31  1  0.492293  0.841466  0.760177  1
  O  O32  1  0.430326  0.857822  0.964681  1
  O  O33  1  0.930326  0.142178  0.035319  1
  O  O34  1  0.430326  0.642178  0.464681  1
  O  O35  1  0.930326  0.357822  0.535319  1
  O  O36  1  0.949127  0.893793  0.952954  1
  O  O37  1  0.449127  0.106207  0.047046  1
  O  O38  1  0.949127  0.606207  0.452954  1
  O  O39  1  0.449127  0.393793  0.547046  1
  O  O40  1  0.171398  0.624089  0.903686  1
  O  O41  1  0.671398  0.375911  0.096314  1
  O  O42  1  0.171398  0.875911  0.403686  1
  O  O43  1  0.671398  0.124089  0.596314  1
  O  O44  1  0.550877  0.822084  0.863801  1
  O  O45  1  0.050877  0.177916  0.136199  1
  O  O46  1  0.550877  0.677916  0.363801  1
  O  O47  1  0.050877  0.322084  0.636199  1
  O  O48  1  0.060970  0.894070  0.842032  1
  O  O49  1  0.560970  0.105930  0.157968  1
  O  O50  1  0.060970  0.605930  0.342032  1
  O  O51  1  0.560970  0.394070  0.657968  1
  O  O52  1  0.830681  0.625185  0.796000  1
  O  O53  1  0.330681  0.374815  0.204000  1
  O  O54  1  0.830681  0.874815  0.296000  1
  O  O55  1  0.705145  0.374947  0.304551  1
  Ti  Ti56  1  0.211315  0.881841  0.910683  1
  Ti  Ti57  1  0.711315  0.118159  0.089317  1
  Ti  Ti58  1  0.211315  0.618159  0.410683  1
  Ti  Ti59  1  0.711315  0.381841  0.589317  1
  Ti  Ti60  1  0.743486  0.872798  0.810169  1
  Ti  Ti61  1  0.243486  0.127202  0.189831  1
  Ti  Ti62  1  0.743486  0.627202  0.310169  1
  Ti  Ti63  1  0.243486  0.372798  0.689831  1
  Ti  Ti64  1  0.245642  0.877914  0.689128  1
  Ti  Ti65  1  0.745642  0.122086  0.310872  1
  Ti  Ti66  1  0.245642  0.622086  0.189128  1
  Ti  Ti67  1  0.745642  0.377914  0.810872  1
  Ti  Ti68  1  0.704625  0.874121  0.587306  1
  Ti  Ti69  1  0.204625  0.125879  0.412694  1
  Ti  Ti70  1  0.704625  0.625879  0.087306  1
  Ti  Ti71  1  0.204625  0.374121  0.912694  1
  La  La72  1  0.703836  0.621331  0.942977  1
  La  La73  1  0.203836  0.378669  0.057023  1
  La  La74  1  0.703836  0.878669  0.442977  1
  La  La75  1  0.203836  0.121331  0.557023  1
  La  La76  1  0.257655  0.624302  0.808484  1
  La  La77  1  0.757655  0.375698  0.191516  1
  La  La78  1  0.257655  0.875698  0.308484  1
  La  La79  1  0.757655  0.124302  0.691516  1
  La  La80  1  0.750575  0.625797  0.703115  1
  La  La81  1  0.250575  0.374203  0.296885  1
  La  La82  1  0.750575  0.874203  0.203115  1
  La  La83  1  0.250575  0.125797  0.796885  1
  La  La84  1  0.151318  0.627993  0.538701  1
  La  La85  1  0.651318  0.372007  0.461299  1
  La  La86  1  0.151318  0.872007  0.038701  1
  La  La87  1  0.651318  0.127993  0.961299  1
