# generated using pymatgen
data_La4Ti9O24
_symmetry_space_group_name_H-M   'P 1'
_cell_length_a   10.23584197
_cell_length_b   10.23584215
_cell_length_c   19.26780935
_cell_angle_alpha   104.80942723
_cell_angle_beta   104.80942749
_cell_angle_gamma   92.16090514
_symmetry_Int_Tables_number   1
_chemical_formula_structural   La4Ti9O24
_chemical_formula_sum   'La16 Ti36 O96'
_cell_volume   1875.34327649
_cell_formula_units_Z   4
loop_
 _symmetry_equiv_pos_site_id
 _symmetry_equiv_pos_as_xyz
  1  'x, y, z'
loop_
 _atom_site_type_symbol
 _atom_site_label
 _atom_site_symmetry_multiplicity
 _atom_site_fract_x
 _atom_site_fract_y
 _atom_site_fract_z
 _atom_site_occupancy
  La  La0  1  0.871519  0.824018  0.255878  1
  La  La1  1  0.115642  0.568141  0.744122  1
  La  La2  1  0.267620  0.017620  0.035239  1
  La  La3  1  0.243178  0.493178  0.986357  1
  La  La4  1  0.128481  0.175982  0.744122  1
  La  La5  1  0.017620  0.267620  0.535239  1
  La  La6  1  0.824018  0.871519  0.755878  1
  La  La7  1  0.493178  0.243178  0.486357  1
  La  La8  1  0.982380  0.732380  0.464761  1
  La  La9  1  0.756822  0.506822  0.013643  1
  La  La10  1  0.732380  0.982380  0.964761  1
  La  La11  1  0.506822  0.756822  0.513643  1
  La  La12  1  0.431859  0.884358  0.755878  1
  La  La13  1  0.568141  0.115642  0.244122  1
  La  La14  1  0.884358  0.431859  0.255878  1
  La  La15  1  0.175982  0.128481  0.244122  1
  Ti  Ti16  1  0.183278  0.687481  0.331455  1
  Ti  Ti17  1  0.285986  0.039640  0.591284  1
  Ti  Ti18  1  0.571930  0.261589  0.075123  1
  Ti  Ti19  1  0.261589  0.571930  0.575123  1
  Ti  Ti20  1  0.569640  0.562270  0.159352  1
  Ti  Ti21  1  0.648176  0.643973  0.331455  1
  Ti  Ti22  1  0.996807  0.186466  0.924877  1
  Ti  Ti23  1  0.351824  0.356027  0.668545  1
  Ti  Ti24  1  0.805298  0.551644  0.591284  1
  Ti  Ti25  1  0.089712  0.597082  0.159352  1
  Ti  Ti26  1  0.562270  0.569640  0.659352  1
  Ti  Ti27  1  0.079946  0.829946  0.659892  1
  Ti  Ti28  1  0.597082  0.089712  0.659352  1
  Ti  Ti29  1  0.738411  0.428070  0.424877  1
  Ti  Ti30  1  0.428070  0.738411  0.924877  1
  Ti  Ti31  1  0.643973  0.648176  0.831455  1
  Ti  Ti32  1  0.816722  0.312519  0.668545  1
  Ti  Ti33  1  0.356027  0.351824  0.168545  1
  Ti  Ti34  1  0.312519  0.816722  0.168545  1
  Ti  Ti35  1  0.448356  0.194702  0.908716  1
  Ti  Ti36  1  0.003193  0.813534  0.075123  1
  Ti  Ti37  1  0.186466  0.996807  0.424877  1
  Ti  Ti38  1  0.960360  0.714014  0.908716  1
  Ti  Ti39  1  0.920054  0.170054  0.340108  1
  Ti  Ti40  1  0.170054  0.920054  0.840108  1
  Ti  Ti41  1  0.402918  0.910288  0.340648  1
  Ti  Ti42  1  0.829946  0.079946  0.159892  1
  Ti  Ti43  1  0.430360  0.437730  0.840648  1
  Ti  Ti44  1  0.910288  0.402918  0.840648  1
  Ti  Ti45  1  0.194702  0.448356  0.408716  1
  Ti  Ti46  1  0.039640  0.285986  0.091284  1
  Ti  Ti47  1  0.437730  0.430360  0.340648  1
  Ti  Ti48  1  0.551644  0.805298  0.091284  1
  Ti  Ti49  1  0.813534  0.003193  0.575123  1
  Ti  Ti50  1  0.714014  0.960360  0.408716  1
  Ti  Ti51  1  0.687481  0.183278  0.831455  1
  O  O52  1  0.696299  0.133190  0.086258  1
  O  O53  1  0.355118  0.353193  0.401379  1
  O  O54  1  0.230432  0.971806  0.668171  1
  O  O55  1  0.074487  0.840638  0.989314  1
  O  O56  1  0.081556  0.583392  0.380560  1
  O  O57  1  0.110221  0.322847  0.008026  1
  O  O58  1  0.787726  0.212274  0.250000  1
  O  O59  1  0.312920  0.588855  0.856235  1
  O  O60  1  0.110041  0.046933  0.913742  1
  O  O61  1  0.314821  0.602194  0.491974  1
  O  O62  1  0.364137  0.281233  0.253620  1
  O  O63  1  0.027613  0.610517  0.246380  1
  O  O64  1  0.732620  0.956684  0.643765  1
  O  O65  1  0.148675  0.414827  0.489314  1
  O  O66  1  0.454503  0.203437  0.664544  1
  O  O67  1  0.831171  0.067872  0.859841  1
  O  O68  1  0.956684  0.732620  0.143765  1
  O  O69  1  0.048186  0.546260  0.901379  1
  O  O70  1  0.635863  0.718767  0.746380  1
  O  O71  1  0.687080  0.411145  0.143765  1
  O  O72  1  0.796563  0.545497  0.835456  1
  O  O73  1  0.677153  0.889779  0.491974  1
  O  O74  1  0.588855  0.312920  0.356235  1
  O  O75  1  0.037726  0.962274  0.750000  1
  O  O76  1  0.043316  0.267380  0.856235  1
  O  O77  1  0.671401  0.172791  0.595601  1
  O  O78  1  0.133190  0.696299  0.586258  1
  O  O79  1  0.159362  0.925513  0.510686  1
  O  O80  1  0.751452  0.248548  0.750000  1
  O  O81  1  0.168829  0.932128  0.140159  1
  O  O82  1  0.972387  0.389483  0.753620  1
  O  O83  1  0.528670  0.791969  0.859841  1
  O  O84  1  0.200996  0.202832  0.619440  1
  O  O85  1  0.583392  0.081556  0.880560  1
  O  O86  1  0.067872  0.831171  0.359841  1
  O  O87  1  0.577191  0.575801  0.904399  1
  O  O88  1  0.248548  0.751452  0.250000  1
  O  O89  1  0.696365  0.937739  0.168171  1
  O  O90  1  0.827209  0.328599  0.904399  1
  O  O91  1  0.710040  0.461107  0.664544  1
  O  O92  1  0.585173  0.851325  0.010686  1
  O  O93  1  0.851325  0.585173  0.510686  1
  O  O94  1  0.062261  0.303635  0.331829  1
  O  O95  1  0.685179  0.397806  0.508026  1
  O  O96  1  0.646807  0.644882  0.098621  1
  O  O97  1  0.937739  0.696365  0.668171  1
  O  O98  1  0.046933  0.110041  0.413742  1
  O  O99  1  0.602194  0.314821  0.991974  1
  O  O100  1  0.866810  0.303701  0.413742  1
  O  O101  1  0.840638  0.074487  0.489314  1
  O  O102  1  0.971806  0.230432  0.168171  1
  O  O103  1  0.471330  0.208031  0.140159  1
  O  O104  1  0.799004  0.797168  0.380560  1
  O  O105  1  0.422809  0.424199  0.095601  1
  O  O106  1  0.172791  0.671401  0.095601  1
  O  O107  1  0.028194  0.769568  0.831829  1
  O  O108  1  0.797168  0.799004  0.880560  1
  O  O109  1  0.932128  0.168829  0.640159  1
  O  O110  1  0.303635  0.062261  0.831829  1
  O  O111  1  0.546260  0.048186  0.401379  1
  O  O112  1  0.411145  0.687080  0.643765  1
  O  O113  1  0.414827  0.148675  0.989314  1
  O  O114  1  0.718767  0.635863  0.246380  1
  O  O115  1  0.389483  0.972387  0.253620  1
  O  O116  1  0.453740  0.951814  0.598621  1
  O  O117  1  0.289960  0.538893  0.335456  1
  O  O118  1  0.545497  0.796563  0.335456  1
  O  O119  1  0.962274  0.037726  0.250000  1
  O  O120  1  0.208031  0.471330  0.640159  1
  O  O121  1  0.461107  0.710040  0.164544  1
  O  O122  1  0.889959  0.953067  0.086258  1
  O  O123  1  0.424199  0.422809  0.595601  1
  O  O124  1  0.610517  0.027613  0.746380  1
  O  O125  1  0.267380  0.043316  0.356235  1
  O  O126  1  0.303701  0.866810  0.913742  1
  O  O127  1  0.212274  0.787726  0.750000  1
  O  O128  1  0.918444  0.416608  0.619440  1
  O  O129  1  0.328599  0.827209  0.404399  1
  O  O130  1  0.322847  0.110221  0.508026  1
  O  O131  1  0.353193  0.355118  0.901379  1
  O  O132  1  0.203437  0.454503  0.164544  1
  O  O133  1  0.925513  0.159362  0.010686  1
  O  O134  1  0.769568  0.028194  0.331829  1
  O  O135  1  0.953067  0.889959  0.586258  1
  O  O136  1  0.791969  0.528670  0.359841  1
  O  O137  1  0.501452  0.498548  0.250000  1
  O  O138  1  0.281233  0.364137  0.753620  1
  O  O139  1  0.498548  0.501452  0.750000  1
  O  O140  1  0.644882  0.646807  0.598621  1
  O  O141  1  0.416608  0.918444  0.119440  1
  O  O142  1  0.575801  0.577191  0.404399  1
  O  O143  1  0.202832  0.200996  0.119440  1
  O  O144  1  0.538893  0.289960  0.835456  1
  O  O145  1  0.397806  0.685179  0.008026  1
  O  O146  1  0.889779  0.677153  0.991974  1
  O  O147  1  0.951814  0.453740  0.098621  1
