# generated using pymatgen
data_La2WO6
_symmetry_space_group_name_H-M   'P 1'
_cell_length_a   9.11902154
_cell_length_b   21.96385667
_cell_length_c   5.52391562
_cell_angle_alpha   90.00000000
_cell_angle_beta   90.00000000
_cell_angle_gamma   90.00000000
_symmetry_Int_Tables_number   1
_chemical_formula_structural   La2WO6
_chemical_formula_sum   'La16 W8 O48'
_cell_volume   1106.37888421
_cell_formula_units_Z   8
loop_
 _symmetry_equiv_pos_site_id
 _symmetry_equiv_pos_as_xyz
  1  'x, y, z'
loop_
 _atom_site_type_symbol
 _atom_site_label
 _atom_site_symmetry_multiplicity
 _atom_site_fract_x
 _atom_site_fract_y
 _atom_site_fract_z
 _atom_site_occupancy
  La  La0  1  0.088424  0.434783  0.459637  1
  La  La1  1  0.106784  0.664915  0.418520  1
  La  La2  1  0.245991  0.932345  0.538013  1
  La  La3  1  0.245634  0.200257  0.493509  1
  La  La4  1  0.254366  0.799743  0.993509  1
  La  La5  1  0.254009  0.067655  0.038013  1
  La  La6  1  0.393216  0.335085  0.918520  1
  La  La7  1  0.411576  0.565217  0.959637  1
  La  La8  1  0.588424  0.065217  0.540363  1
  La  La9  1  0.606784  0.835085  0.581480  1
  La  La10  1  0.745991  0.567655  0.461987  1
  La  La11  1  0.745634  0.299743  0.506491  1
  La  La12  1  0.754366  0.700257  0.006491  1
  La  La13  1  0.754009  0.432345  0.961987  1
  La  La14  1  0.893216  0.164915  0.081480  1
  La  La15  1  0.911576  0.934783  0.040363  1
  W  W16  1  0.015789  0.556489  0.935889  1
  W  W17  1  0.020080  0.312582  0.988226  1
  W  W18  1  0.479920  0.687418  0.488226  1
  W  W19  1  0.484211  0.443511  0.435889  1
  W  W20  1  0.515789  0.943511  0.064111  1
  W  W21  1  0.520080  0.187418  0.011774  1
  W  W22  1  0.979920  0.812582  0.511774  1
  W  W23  1  0.984211  0.056489  0.564111  1
  O  O24  1  0.030847  0.251705  0.243205  1
  O  O25  1  0.047046  0.119181  0.783044  1
  O  O26  1  0.052139  0.871092  0.760851  1
  O  O27  1  0.048190  0.000626  0.315471  1
  O  O28  1  0.106842  0.118767  0.327951  1
  O  O29  1  0.114118  0.003426  0.777039  1
  O  O30  1  0.120269  0.858335  0.290321  1
  O  O31  1  0.121799  0.757217  0.668153  1
  O  O32  1  0.166757  0.366938  0.117432  1
  O  O33  1  0.175323  0.596284  0.100115  1
  O  O34  1  0.167953  0.517521  0.766333  1
  O  O35  1  0.172801  0.280276  0.782150  1
  O  O36  1  0.327199  0.719724  0.282150  1
  O  O37  1  0.332047  0.482479  0.266333  1
  O  O38  1  0.324677  0.403716  0.600115  1
  O  O39  1  0.333243  0.633062  0.617432  1
  O  O40  1  0.378201  0.242783  0.168153  1
  O  O41  1  0.379731  0.141665  0.790321  1
  O  O42  1  0.385882  0.996574  0.277039  1
  O  O43  1  0.393158  0.881233  0.827951  1
  O  O44  1  0.451810  0.999374  0.815471  1
  O  O45  1  0.447861  0.128908  0.260851  1
  O  O46  1  0.452954  0.880819  0.283044  1
  O  O47  1  0.469153  0.748295  0.743205  1
  O  O48  1  0.530847  0.248295  0.756795  1
  O  O49  1  0.547046  0.380819  0.216956  1
  O  O50  1  0.552139  0.628908  0.239149  1
  O  O51  1  0.548190  0.499374  0.684529  1
  O  O52  1  0.606842  0.381233  0.672049  1
  O  O53  1  0.614118  0.496574  0.222961  1
  O  O54  1  0.620269  0.641665  0.709679  1
  O  O55  1  0.621799  0.742783  0.331847  1
  O  O56  1  0.666757  0.133062  0.882568  1
  O  O57  1  0.675323  0.903716  0.899885  1
  O  O58  1  0.667953  0.982479  0.233667  1
  O  O59  1  0.672801  0.219724  0.217850  1
  O  O60  1  0.827199  0.780276  0.717850  1
  O  O61  1  0.832047  0.017521  0.733667  1
  O  O62  1  0.824677  0.096284  0.399885  1
  O  O63  1  0.833243  0.866938  0.382568  1
  O  O64  1  0.878201  0.257217  0.831847  1
  O  O65  1  0.879731  0.358335  0.209679  1
  O  O66  1  0.885882  0.503426  0.722961  1
  O  O67  1  0.893158  0.618767  0.172049  1
  O  O68  1  0.951810  0.500626  0.184529  1
  O  O69  1  0.947861  0.371092  0.739149  1
  O  O70  1  0.952954  0.619181  0.716956  1
  O  O71  1  0.969153  0.751705  0.256795  1
