# generated using pymatgen
data_La2WO6
_symmetry_space_group_name_H-M   'P 1'
_cell_length_a   16.78811929
_cell_length_b   11.21715220
_cell_length_c   5.80745277
_cell_angle_alpha   90.00000000
_cell_angle_beta   90.00000000
_cell_angle_gamma   90.00000000
_symmetry_Int_Tables_number   1
_chemical_formula_structural   La2WO6
_chemical_formula_sum   'La16 W8 O48'
_cell_volume   1093.62982508
_cell_formula_units_Z   8
loop_
 _symmetry_equiv_pos_site_id
 _symmetry_equiv_pos_as_xyz
  1  'x, y, z'
loop_
 _atom_site_type_symbol
 _atom_site_label
 _atom_site_symmetry_multiplicity
 _atom_site_fract_x
 _atom_site_fract_y
 _atom_site_fract_z
 _atom_site_occupancy
  La  La0  1  0.062076  0.361653  0.100299  1
  La  La1  1  0.062076  0.138347  0.600299  1
  La  La2  1  0.233286  0.139268  0.063384  1
  La  La3  1  0.233286  0.360731  0.563384  1
  La  La4  1  0.266714  0.639269  0.063384  1
  La  La5  1  0.266714  0.860731  0.563384  1
  La  La6  1  0.437924  0.638347  0.600299  1
  La  La7  1  0.437924  0.861653  0.100299  1
  La  La8  1  0.562076  0.138347  0.899701  1
  La  La9  1  0.562076  0.361653  0.399701  1
  La  La10  1  0.733286  0.139268  0.436616  1
  La  La11  1  0.733286  0.360731  0.936616  1
  La  La12  1  0.766714  0.639269  0.436616  1
  La  La13  1  0.766714  0.860731  0.936616  1
  La  La14  1  0.937924  0.638347  0.899701  1
  La  La15  1  0.937924  0.861653  0.399701  1
  W  W16  1  0.120446  0.626557  0.607728  1
  W  W17  1  0.120446  0.873443  0.107728  1
  W  W18  1  0.379554  0.126557  0.607728  1
  W  W19  1  0.379554  0.373443  0.107728  1
  W  W20  1  0.620446  0.626557  0.892272  1
  W  W21  1  0.620446  0.873443  0.392272  1
  W  W22  1  0.879554  0.126557  0.892272  1
  W  W23  1  0.879554  0.373443  0.392272  1
  O  O24  1  0.023557  0.788495  0.080120  1
  O  O25  1  0.023557  0.711505  0.580120  1
  O  O26  1  0.077674  0.546882  0.869714  1
  O  O27  1  0.077674  0.953118  0.369714  1
  O  O28  1  0.108460  0.001286  0.909849  1
  O  O29  1  0.108460  0.498714  0.409849  1
  O  O30  1  0.148060  0.234774  0.328870  1
  O  O31  1  0.148060  0.265226  0.828870  1
  O  O32  1  0.165513  0.734395  0.348401  1
  O  O33  1  0.165513  0.765605  0.848401  1
  O  O34  1  0.229950  0.927863  0.169902  1
  O  O35  1  0.229950  0.572137  0.669902  1
  O  O36  1  0.270050  0.072137  0.669902  1
  O  O37  1  0.270050  0.427863  0.169902  1
  O  O38  1  0.334487  0.234395  0.348401  1
  O  O39  1  0.334487  0.265605  0.848401  1
  O  O40  1  0.351940  0.734774  0.328870  1
  O  O41  1  0.351940  0.765226  0.828870  1
  O  O42  1  0.391540  0.501286  0.909849  1
  O  O43  1  0.391540  0.998714  0.409849  1
  O  O44  1  0.422326  0.046882  0.869714  1
  O  O45  1  0.422326  0.453118  0.369714  1
  O  O46  1  0.476443  0.211505  0.580120  1
  O  O47  1  0.476443  0.288495  0.080120  1
  O  O48  1  0.523557  0.711505  0.919880  1
  O  O49  1  0.523557  0.788495  0.419880  1
  O  O50  1  0.577674  0.546882  0.630286  1
  O  O51  1  0.577674  0.953118  0.130286  1
  O  O52  1  0.608460  0.001286  0.590151  1
  O  O53  1  0.608460  0.498714  0.090151  1
  O  O54  1  0.648060  0.234774  0.171130  1
  O  O55  1  0.648060  0.265226  0.671130  1
  O  O56  1  0.665513  0.734395  0.151599  1
  O  O57  1  0.665513  0.765605  0.651599  1
  O  O58  1  0.729950  0.572137  0.830098  1
  O  O59  1  0.729950  0.927863  0.330098  1
  O  O60  1  0.770050  0.072137  0.830098  1
  O  O61  1  0.770050  0.427863  0.330098  1
  O  O62  1  0.834487  0.234395  0.151599  1
  O  O63  1  0.834487  0.265605  0.651599  1
  O  O64  1  0.851940  0.734774  0.171130  1
  O  O65  1  0.851940  0.765226  0.671130  1
  O  O66  1  0.891540  0.501286  0.590151  1
  O  O67  1  0.891540  0.998714  0.090151  1
  O  O68  1  0.922326  0.046882  0.630286  1
  O  O69  1  0.922326  0.453118  0.130286  1
  O  O70  1  0.976443  0.211505  0.919880  1
  O  O71  1  0.976443  0.288495  0.419880  1
