# generated using pymatgen
data_La4Zn3O9
_symmetry_space_group_name_H-M   'P 1'
_cell_length_a   5.56609143
_cell_length_b   28.42317063
_cell_length_c   5.79028548
_cell_angle_alpha   90.00000000
_cell_angle_beta   90.00000000
_cell_angle_gamma   90.00000000
_symmetry_Int_Tables_number   1
_chemical_formula_structural   La4Zn3O9
_chemical_formula_sum   'La16 Zn12 O36'
_cell_volume   916.05771043
_cell_formula_units_Z   4
loop_
 _symmetry_equiv_pos_site_id
 _symmetry_equiv_pos_as_xyz
  1  'x, y, z'
loop_
 _atom_site_type_symbol
 _atom_site_label
 _atom_site_symmetry_multiplicity
 _atom_site_fract_x
 _atom_site_fract_y
 _atom_site_fract_z
 _atom_site_occupancy
  La  La0  1  0.241261  0.172267  0.020015  1
  La  La1  1  0.241261  0.327733  0.020015  1
  La  La2  1  0.256334  0.950507  0.483115  1
  La  La3  1  0.256334  0.549493  0.483115  1
  La  La4  1  0.243666  0.049493  0.983114  1
  La  La5  1  0.243666  0.450507  0.983114  1
  La  La6  1  0.258739  0.672267  0.520015  1
  La  La7  1  0.258739  0.827733  0.520015  1
  La  La8  1  0.741261  0.172267  0.479985  1
  La  La9  1  0.741261  0.327733  0.479985  1
  La  La10  1  0.756334  0.549493  0.016886  1
  La  La11  1  0.756334  0.950507  0.016886  1
  La  La12  1  0.743666  0.049493  0.516886  1
  La  La13  1  0.743666  0.450507  0.516886  1
  La  La14  1  0.758739  0.672267  0.979985  1
  La  La15  1  0.758739  0.827733  0.979985  1
  Zn  Zn16  1  0.204420  0.250000  0.557478  1
  Zn  Zn17  1  0.251990  0.610179  0.000966  1
  Zn  Zn18  1  0.251990  0.889821  0.000966  1
  Zn  Zn19  1  0.248010  0.110179  0.500966  1
  Zn  Zn20  1  0.248010  0.389821  0.500966  1
  Zn  Zn21  1  0.295580  0.750000  0.057478  1
  Zn  Zn22  1  0.704420  0.250000  0.942522  1
  Zn  Zn23  1  0.751990  0.610179  0.499034  1
  Zn  Zn24  1  0.751990  0.889821  0.499034  1
  Zn  Zn25  1  0.748010  0.110179  0.999034  1
  Zn  Zn26  1  0.748010  0.389821  0.999034  1
  Zn  Zn27  1  0.795580  0.750000  0.442522  1
  O  O28  1  0.000213  0.619995  0.249498  1
  O  O29  1  0.000213  0.880005  0.249498  1
  O  O30  1  0.007453  0.601361  0.744134  1
  O  O31  1  0.007453  0.898639  0.744134  1
  O  O32  1  0.168029  0.750000  0.387423  1
  O  O33  1  0.241040  0.529117  0.079621  1
  O  O34  1  0.241040  0.970883  0.079621  1
  O  O35  1  0.275613  0.310560  0.415297  1
  O  O36  1  0.275613  0.189440  0.415297  1
  O  O37  1  0.224387  0.810560  0.915297  1
  O  O38  1  0.224387  0.689440  0.915297  1
  O  O39  1  0.258960  0.029117  0.579622  1
  O  O40  1  0.258960  0.470883  0.579622  1
  O  O41  1  0.331971  0.250000  0.887423  1
  O  O42  1  0.492547  0.101361  0.244134  1
  O  O43  1  0.492547  0.398639  0.244134  1
  O  O44  1  0.499787  0.119995  0.749498  1
  O  O45  1  0.499787  0.380005  0.749498  1
  O  O46  1  0.500213  0.880005  0.250502  1
  O  O47  1  0.500213  0.619995  0.250502  1
  O  O48  1  0.507453  0.601361  0.755866  1
  O  O49  1  0.507453  0.898639  0.755866  1
  O  O50  1  0.668029  0.750000  0.112577  1
  O  O51  1  0.741040  0.529117  0.420378  1
  O  O52  1  0.741040  0.970883  0.420378  1
  O  O53  1  0.775613  0.189440  0.084703  1
  O  O54  1  0.775613  0.310560  0.084703  1
  O  O55  1  0.724387  0.689440  0.584703  1
  O  O56  1  0.724387  0.810560  0.584703  1
  O  O57  1  0.758960  0.029117  0.920378  1
  O  O58  1  0.758960  0.470883  0.920378  1
  O  O59  1  0.831971  0.250000  0.612577  1
  O  O60  1  0.992547  0.101361  0.255866  1
  O  O61  1  0.992547  0.398639  0.255866  1
  O  O62  1  0.999787  0.119995  0.750502  1
  O  O63  1  0.999787  0.380005  0.750502  1
