# generated using pymatgen
data_La17Mn17O54
_symmetry_space_group_name_H-M   'P 1'
_cell_length_a   49.71883264
_cell_length_b   14.57210327
_cell_length_c   9.52452657
_cell_angle_alpha   29.65554081
_cell_angle_beta   30.37309323
_cell_angle_gamma   19.29804587
_symmetry_Int_Tables_number   1
_chemical_formula_structural   La17Mn17O54
_chemical_formula_sum   'La17 Mn17 O54'
_cell_volume   1089.47062078
_cell_formula_units_Z   1
loop_
 _symmetry_equiv_pos_site_id
 _symmetry_equiv_pos_as_xyz
  1  'x, y, z'
loop_
 _atom_site_type_symbol
 _atom_site_label
 _atom_site_symmetry_multiplicity
 _atom_site_fract_x
 _atom_site_fract_y
 _atom_site_fract_z
 _atom_site_occupancy
  La  La0  1  0.052561  0.243885  0.278721  1
  La  La1  1  0.161343  0.276853  0.240112  1
  La  La2  1  0.051845  0.765233  0.764624  1
  La  La3  1  0.280255  0.245702  0.243261  1
  La  La4  1  0.161303  0.757973  0.756768  1
  La  La5  1  0.390588  0.242690  0.253683  1
  La  La6  1  0.283266  0.736808  0.736990  1
  La  La7  1  0.392031  0.737836  0.760037  1
  La  La8  1  0.610145  0.250529  0.253200  1
  La  La9  1  0.499960  0.751182  0.748975  1
  La  La10  1  0.721340  0.254744  0.248864  1
  La  La11  1  0.608630  0.759439  0.740219  1
  La  La12  1  0.837100  0.246713  0.243556  1
  La  La13  1  0.716960  0.762311  0.764352  1
  La  La14  1  0.947609  0.236152  0.236172  1
  La  La15  1  0.837381  0.727147  0.759550  1
  La  La16  1  0.947852  0.755469  0.719685  1
  Mn  Mn17  1  0.111176  0.999828  0.000374  1
  Mn  Mn18  1  0.222948  0.997475  0.000068  1
  Mn  Mn19  1  0.111551  0.494799  0.509576  1
  Mn  Mn20  1  0.335597  0.990940  0.002253  1
  Mn  Mn21  1  0.223833  0.494508  0.499484  1
  Mn  Mn22  1  0.445049  0.002193  0.991881  1
  Mn  Mn23  1  0.334325  0.498669  0.498250  1
  Mn  Mn24  1  0.554699  0.002643  0.004110  1
  Mn  Mn25  1  0.445189  0.496740  0.497131  1
  Mn  Mn26  1  0.664344  0.004509  0.003310  1
  Mn  Mn27  1  0.554674  0.498513  0.507597  1
  Mn  Mn28  1  0.777227  0.001668  0.000422  1
  Mn  Mn29  1  0.665929  0.505369  0.496170  1
  Mn  Mn30  1  0.889103  0.000088  0.998442  1
  Mn  Mn31  1  0.776171  0.505565  0.501028  1
  Mn  Mn32  1  0.888758  0.504150  0.490398  1
  Mn  Mn33  1  0.999801  0.500703  0.499850  1
  O  O34  1  0.019248  0.206837  0.733042  1
  O  O35  1  0.104796  0.311780  0.187518  1
  O  O36  1  0.067976  0.254771  0.689875  1
  O  O37  1  0.048451  0.728346  0.322112  1
  O  O38  1  0.132806  0.184295  0.752066  1
  O  O39  1  0.008000  0.682639  0.815955  1
  O  O40  1  0.214629  0.310607  0.193160  1
  O  O41  1  0.091476  0.809113  0.248668  1
  O  O42  1  0.181552  0.247995  0.686500  1
  O  O43  1  0.152944  0.750520  0.311874  1
  O  O44  1  0.244338  0.184224  0.747738  1
  O  O45  1  0.124584  0.680876  0.785951  1
  O  O46  1  0.326136  0.310988  0.191756  1
  O  O47  1  0.202561  0.808359  0.251427  1
  O  O48  1  0.290654  0.248673  0.693309  1
  O  O49  1  0.263048  0.753427  0.309184  1
  O  O50  1  0.351856  0.193655  0.751978  1
  O  O51  1  0.227864  0.694488  0.808399  1
  O  O52  1  0.435210  0.305832  0.192855  1
  O  O53  1  0.310236  0.819290  0.250036  1
  O  O54  1  0.394330  0.250709  0.725270  1
  O  O55  1  0.369587  0.780328  0.305574  1
  O  O56  1  0.459764  0.192953  0.780103  1
  O  O57  1  0.339513  0.692608  0.808396  1
  O  O58  1  0.552722  0.308375  0.189226  1
  O  O59  1  0.426540  0.803194  0.252670  1
  O  O60  1  0.512764  0.247595  0.695523  1
  O  O61  1  0.488087  0.746975  0.306535  1
  O  O62  1  0.577062  0.195163  0.721554  1
  O  O63  1  0.446969  0.724726  0.776016  1
  O  O64  1  0.660742  0.311299  0.185345  1
  O  O65  1  0.538226  0.802671  0.247445  1
  O  O66  1  0.625965  0.248356  0.684378  1
  O  O67  1  0.604615  0.720473  0.308845  1
  O  O68  1  0.687741  0.187387  0.748494  1
  O  O69  1  0.562256  0.687218  0.815535  1
  O  O70  1  0.771740  0.306793  0.189211  1
  O  O71  1  0.657384  0.778375  0.248992  1
  O  O72  1  0.736069  0.246932  0.693743  1
  O  O73  1  0.708022  0.754728  0.309554  1
  O  O74  1  0.797803  0.190472  0.748744  1
  O  O75  1  0.673764  0.690136  0.807688  1
  O  O76  1  0.874966  0.320930  0.212837  1
  O  O77  1  0.757354  0.810936  0.252160  1
  O  O78  1  0.847021  0.248389  0.690016  1
  O  O79  1  0.817591  0.752489  0.317799  1
  O  O80  1  0.908576  0.190486  0.751907  1
  O  O81  1  0.784581  0.693967  0.804241  1
  O  O82  1  0.992463  0.316142  0.183281  1
  O  O83  1  0.868844  0.811506  0.246172  1
  O  O84  1  0.951482  0.271833  0.678046  1
  O  O85  1  0.931320  0.747078  0.311052  1
  O  O86  1  0.894699  0.689285  0.813820  1
  O  O87  1  0.980524  0.793753  0.267316  1
