# generated using pymatgen
data_La9Mn10O30
_symmetry_space_group_name_H-M   'P 1'
_cell_length_a   11.04170617
_cell_length_b   27.62256373
_cell_length_c   18.22499315
_cell_angle_alpha   25.49764277
_cell_angle_beta   41.63479942
_cell_angle_gamma   60.71021777
_symmetry_Int_Tables_number   1
_chemical_formula_structural   La9Mn10O30
_chemical_formula_sum   'La18 Mn20 O60'
_cell_volume   1210.60280519
_cell_formula_units_Z   2
loop_
 _symmetry_equiv_pos_site_id
 _symmetry_equiv_pos_as_xyz
  1  'x, y, z'
loop_
 _atom_site_type_symbol
 _atom_site_label
 _atom_site_symmetry_multiplicity
 _atom_site_fract_x
 _atom_site_fract_y
 _atom_site_fract_z
 _atom_site_occupancy
  La  La0  1  0.993562  0.144159  0.263890  1
  La  La1  1  0.000213  0.350157  0.249670  1
  La  La2  1  0.012103  0.057513  0.737424  1
  La  La3  1  0.487897  0.142487  0.262576  1
  La  La4  1  0.000832  0.749093  0.251090  1
  La  La5  1  0.001294  0.248202  0.748247  1
  La  La6  1  0.986198  0.443345  0.768762  1
  La  La7  1  0.509647  0.554286  0.242183  1
  La  La8  1  0.506438  0.055841  0.736110  1
  La  La9  1  0.990353  0.645714  0.757817  1
  La  La10  1  0.513802  0.756655  0.231238  1
  La  La11  1  0.503081  0.254465  0.743092  1
  La  La12  1  0.498706  0.951798  0.251753  1
  La  La13  1  0.499168  0.450907  0.748910  1
  La  La14  1  0.999251  0.557395  0.237417  1
  La  La15  1  0.500749  0.642605  0.762583  1
  La  La16  1  0.499787  0.849843  0.750330  1
  La  La17  1  0.996919  0.945535  0.256908  1
  Mn  Mn18  1  0.003076  0.002259  0.995828  1
  Mn  Mn19  1  0.000748  0.199824  0.999660  1
  Mn  Mn20  1  0.998028  0.400546  0.999628  1
  Mn  Mn21  1  0.499252  0.000176  0.000340  1
  Mn  Mn22  1  0.001700  0.602831  0.995180  1
  Mn  Mn23  1  0.000592  0.098260  0.502330  1
  Mn  Mn24  1  0.496924  0.197741  0.004172  1
  Mn  Mn25  1  0.999047  0.801250  0.997857  1
  Mn  Mn26  1  0.004089  0.300870  0.497109  1
  Mn  Mn27  1  0.500953  0.398750  0.002143  1
  Mn  Mn28  1  0.498300  0.597169  0.004820  1
  Mn  Mn29  1  0.499408  0.101740  0.497670  1
  Mn  Mn30  1  0.996357  0.696866  0.505306  1
  Mn  Mn31  1  0.501972  0.799454  0.000372  1
  Mn  Mn32  1  0.499063  0.299914  0.497924  1
  Mn  Mn33  1  0.503643  0.503134  0.494694  1
  Mn  Mn34  1  0.500449  0.701648  0.497699  1
  Mn  Mn35  1  0.495911  0.899130  0.502891  1
  Mn  Mn36  1  0.999551  0.498352  0.502301  1
  Mn  Mn37  1  0.000937  0.900086  0.502076  1
  O  O38  1  0.238087  0.077708  0.213330  1
  O  O39  1  0.284700  0.188191  0.186077  1
  O  O40  1  0.224045  0.264544  0.244367  1
  O  O41  1  0.483513  0.040387  0.266876  1
  O  O42  1  0.265037  0.382933  0.194819  1
  O  O43  1  0.214473  0.464869  0.248803  1
  O  O44  1  0.444680  0.220093  0.306849  1
  O  O45  1  0.721020  0.061609  0.250076  1
  O  O46  1  0.016487  0.159613  0.733124  1
  O  O47  1  0.275937  0.588294  0.188915  1
  O  O48  1  0.215300  0.011809  0.813923  1
  O  O49  1  0.776018  0.182984  0.193860  1
  O  O50  1  0.210488  0.655882  0.263900  1
  O  O51  1  0.436732  0.432952  0.311306  1
  O  O52  1  0.737631  0.250875  0.255768  1
  O  O53  1  0.938356  0.025666  0.310992  1
  O  O54  1  0.067998  0.376595  0.682844  1
  O  O55  1  0.261913  0.122292  0.786670  1
  O  O56  1  0.282140  0.790013  0.182099  1
  O  O57  1  0.221429  0.212913  0.812654  1
  O  O58  1  0.798494  0.387052  0.185284  1
  O  O59  1  0.226215  0.864128  0.242423  1
  O  O60  1  0.427148  0.622442  0.323476  1
  O  O61  1  0.725360  0.463355  0.244248  1
  O  O62  1  0.949734  0.232016  0.300447  1
  O  O63  1  0.072852  0.577558  0.676524  1
  O  O64  1  0.273785  0.335872  0.757577  1
  O  O65  1  0.561644  0.174334  0.689008  1
  O  O66  1  0.278571  0.987087  0.187346  1
  O  O67  1  0.217860  0.409987  0.817901  1
  O  O68  1  0.758932  0.562479  0.229907  1
  O  O69  1  0.723982  0.017016  0.806140  1
  O  O70  1  0.432002  0.823405  0.317156  1
  O  O71  1  0.705613  0.651546  0.278954  1
  O  O72  1  0.944221  0.428098  0.303813  1
  O  O73  1  0.063268  0.767048  0.688694  1
  O  O74  1  0.289512  0.544118  0.736100  1
  O  O75  1  0.561032  0.377845  0.687754  1
  O  O76  1  0.778980  0.138391  0.749924  1
  O  O77  1  0.224063  0.611706  0.811085  1
  O  O78  1  0.783517  0.791617  0.183559  1
  O  O79  1  0.716349  0.219894  0.800075  1
  O  O80  1  0.712823  0.860199  0.257041  1
  O  O81  1  0.938453  0.625459  0.313229  1
  O  O82  1  0.055320  0.979907  0.693151  1
  O  O83  1  0.285527  0.735131  0.751197  1
  O  O84  1  0.561547  0.574541  0.686771  1
  O  O85  1  0.787177  0.339801  0.742959  1
  O  O86  1  0.234963  0.817067  0.805181  1
  O  O87  1  0.783651  0.980106  0.199925  1
  O  O88  1  0.716483  0.408383  0.816441  1
  O  O89  1  0.938968  0.822155  0.312246  1
  O  O90  1  0.275955  0.935456  0.755633  1
  O  O91  1  0.555779  0.771902  0.696187  1
  O  O92  1  0.794387  0.548454  0.721046  1
  O  O93  1  0.741068  0.637521  0.770093  1
  O  O94  1  0.550266  0.967984  0.699553  1
  O  O95  1  0.774640  0.736645  0.755752  1
  O  O96  1  0.701506  0.812948  0.814716  1
  O  O97  1  0.762369  0.949125  0.744232  1
