# generated using pymatgen
data_La19(RuO6)8
_symmetry_space_group_name_H-M   'P 1'
_cell_length_a   5.61978601
_cell_length_b   10.20279383
_cell_length_c   19.14246967
_cell_angle_alpha   90.57022946
_cell_angle_beta   91.32157475
_cell_angle_gamma   90.03455900
_symmetry_Int_Tables_number   1
_chemical_formula_structural   La19(RuO6)8
_chemical_formula_sum   'La19 Ru8 O48'
_cell_volume   1097.23501349
_cell_formula_units_Z   1
loop_
 _symmetry_equiv_pos_site_id
 _symmetry_equiv_pos_as_xyz
  1  'x, y, z'
loop_
 _atom_site_type_symbol
 _atom_site_label
 _atom_site_symmetry_multiplicity
 _atom_site_fract_x
 _atom_site_fract_y
 _atom_site_fract_z
 _atom_site_occupancy
  La  La0  1  0.218690  0.339231  0.649049  1
  La  La1  1  0.202569  0.144122  0.163192  1
  La  La2  1  0.243362  0.071826  0.949465  1
  La  La3  1  0.243033  0.720389  0.674563  1
  La  La4  1  0.241540  0.411163  0.452796  1
  La  La5  1  0.271381  0.480271  0.837075  1
  La  La6  1  0.242567  0.779576  0.177720  1
  La  La7  1  0.264521  0.025471  0.348962  1
  La  La8  1  0.258078  0.406192  0.034387  1
  La  La9  1  0.741536  0.594368  0.964728  1
  La  La10  1  0.726821  0.986415  0.654940  1
  La  La11  1  0.757472  0.221007  0.822382  1
  La  La12  1  0.739139  0.921916  0.471154  1
  La  La13  1  0.728503  0.519323  0.160925  1
  La  La14  1  0.749572  0.573925  0.548054  1
  La  La15  1  0.756405  0.279290  0.325508  1
  La  La16  1  0.756087  0.927573  0.049959  1
  La  La17  1  0.801571  0.855210  0.835686  1
  La  La18  1  0.793048  0.647838  0.345216  1
  Ru  Ru19  1  0.238080  0.087329  0.748582  1
  Ru  Ru20  1  0.236620  0.413231  0.249662  1
  Ru  Ru21  1  0.250963  0.750026  0.506070  1
  Ru  Ru22  1  0.250170  0.750242  0.007323  1
  Ru  Ru23  1  0.749284  0.249513  0.993012  1
  Ru  Ru24  1  0.746597  0.248744  0.493670  1
  Ru  Ru25  1  0.762003  0.586613  0.749519  1
  Ru  Ru26  1  0.763078  0.912407  0.252551  1
  O  O27  1  0.023928  0.861716  0.951309  1
  O  O28  1  0.031189  0.289815  0.933485  1
  O  O29  1  0.029582  0.631917  0.451575  1
  O  O30  1  0.016444  0.214583  0.426646  1
  O  O31  1  0.054996  0.674506  0.789171  1
  O  O32  1  0.064205  0.050108  0.837876  1
  O  O33  1  0.052834  0.825244  0.289844  1
  O  O34  1  0.070476  0.451777  0.336384  1
  O  O35  1  0.094084  0.923284  0.715943  1
  O  O36  1  0.103305  0.576132  0.213632  1
  O  O37  1  0.169826  0.586583  0.950038  1
  O  O38  1  0.164022  0.899307  0.447320  1
  O  O39  1  0.322644  0.589920  0.564444  1
  O  O40  1  0.344518  0.262735  0.786617  1
  O  O41  1  0.327474  0.909532  0.066084  1
  O  O42  1  0.343324  0.237551  0.283754  1
  O  O43  1  0.389720  0.127149  0.662353  1
  O  O44  1  0.377508  0.373607  0.156334  1
  O  O45  1  0.447891  0.512879  0.717768  1
  O  O46  1  0.467276  0.852257  0.568775  1
  O  O47  1  0.449700  0.986363  0.219662  1
  O  O48  1  0.488233  0.316171  0.550365  1
  O  O49  1  0.456875  0.625799  0.066426  1
  O  O50  1  0.469166  0.195714  0.047156  1
  O  O51  1  0.529597  0.804851  0.953294  1
  O  O52  1  0.543502  0.374302  0.934128  1
  O  O53  1  0.535646  0.699983  0.451659  1
  O  O54  1  0.550562  0.012812  0.782083  1
  O  O55  1  0.559466  0.135809  0.426564  1
  O  O56  1  0.552376  0.487249  0.280981  1
  O  O57  1  0.622271  0.626330  0.843530  1
  O  O58  1  0.623127  0.876962  0.344516  1
  O  O59  1  0.653653  0.762901  0.716597  1
  O  O60  1  0.672040  0.090728  0.934648  1
  O  O61  1  0.653813  0.736996  0.215799  1
  O  O62  1  0.669822  0.410695  0.434199  1
  O  O63  1  0.816052  0.095944  0.549811  1
  O  O64  1  0.830556  0.413751  0.049908  1
  O  O65  1  0.892533  0.424722  0.787185  1
  O  O66  1  0.904769  0.076589  0.284650  1
  O  O67  1  0.930841  0.549201  0.663265  1
  O  O68  1  0.947647  0.175071  0.710214  1
  O  O69  1  0.931968  0.949227  0.163297  1
  O  O70  1  0.946178  0.325104  0.210158  1
  O  O71  1  0.970379  0.788745  0.566639  1
  O  O72  1  0.970283  0.366364  0.547419  1
  O  O73  1  0.967705  0.709901  0.066908  1
  O  O74  1  0.975025  0.137369  0.049012  1
