# generated using pymatgen
data_LaCu3(RuO3)4
_symmetry_space_group_name_H-M   'P 1'
_cell_length_a   6.53571750
_cell_length_b   6.53466733
_cell_length_c   6.52984167
_cell_angle_alpha   109.44018632
_cell_angle_beta   109.44743583
_cell_angle_gamma   109.48427495
_symmetry_Int_Tables_number   1
_chemical_formula_structural   LaCu3(RuO3)4
_chemical_formula_sum   'La1 Cu3 Ru4 O12'
_cell_volume   214.79348681
_cell_formula_units_Z   1
loop_
 _symmetry_equiv_pos_site_id
 _symmetry_equiv_pos_as_xyz
  1  'x, y, z'
loop_
 _atom_site_type_symbol
 _atom_site_label
 _atom_site_symmetry_multiplicity
 _atom_site_fract_x
 _atom_site_fract_y
 _atom_site_fract_z
 _atom_site_occupancy
  La  La0  1  -0.000004  0.000003  0.999999  1
  Cu  Cu1  1  0.500000  0.000000  0.500000  1
  Cu  Cu2  1  0.499999  0.500000  0.000000  1
  Cu  Cu3  1  0.000000  0.500000  0.500000  1
  Ru  Ru4  1  0.000000  1.000000  0.500000  1
  Ru  Ru5  1  0.499999  -0.000000  0.000001  1
  Ru  Ru6  1  0.500001  0.500000  0.500000  1
  Ru  Ru7  1  0.000001  0.500002  0.000000  1
  O  O8  1  0.306347  0.172942  0.478868  1
  O  O9  1  0.827067  0.521097  0.693855  1
  O  O10  1  0.521061  0.693898  0.827076  1
  O  O11  1  0.478939  0.306102  0.172926  1
  O  O12  1  0.172932  0.478899  0.306143  1
  O  O13  1  0.306145  0.827237  0.133321  1
  O  O14  1  0.693653  0.827058  0.521131  1
  O  O15  1  0.866539  0.693728  0.172562  1
  O  O16  1  0.693859  0.172763  0.866680  1
  O  O17  1  0.827112  0.133410  0.305945  1
  O  O18  1  0.133461  0.306271  0.827438  1
  O  O19  1  0.172887  0.866589  0.694055  1
