# generated using pymatgen
data_Ce(CoB)4
_symmetry_space_group_name_H-M   'P 1'
_cell_length_a   5.04371942
_cell_length_b   5.04371942
_cell_length_c   7.03329005
_cell_angle_alpha   90.00000000
_cell_angle_beta   90.00000000
_cell_angle_gamma   90.00000000
_symmetry_Int_Tables_number   1
_chemical_formula_structural   Ce(CoB)4
_chemical_formula_sum   'Ce2 Co8 B8'
_cell_volume   178.92060821
_cell_formula_units_Z   2
loop_
 _symmetry_equiv_pos_site_id
 _symmetry_equiv_pos_as_xyz
  1  'x, y, z'
loop_
 _atom_site_type_symbol
 _atom_site_label
 _atom_site_symmetry_multiplicity
 _atom_site_fract_x
 _atom_site_fract_y
 _atom_site_fract_z
 _atom_site_occupancy
  B  B0  1  0.250000  0.076783  0.908235  1
  B  B1  1  0.423217  0.250000  0.408235  1
  B  B2  1  0.076783  0.250000  0.408235  1
  B  B3  1  0.750000  0.923217  0.091765  1
  B  B4  1  0.750000  0.576783  0.091765  1
  B  B5  1  0.250000  0.423217  0.908235  1
  B  B6  1  0.576783  0.750000  0.591765  1
  B  B7  1  0.923217  0.750000  0.591765  1
  Co  Co8  1  0.497862  0.750000  0.887518  1
  Co  Co9  1  0.002138  0.750000  0.887518  1
  Co  Co10  1  0.250000  0.997862  0.612482  1
  Co  Co11  1  0.502138  0.250000  0.112482  1
  Co  Co12  1  0.997862  0.250000  0.112482  1
  Co  Co13  1  0.750000  0.002138  0.387518  1
  Co  Co14  1  0.750000  0.497862  0.387518  1
  Co  Co15  1  0.250000  0.502138  0.612482  1
  Ce  Ce16  1  0.250000  0.750000  0.250000  1
  Ce  Ce17  1  0.750000  0.250000  0.750000  1
