# generated using pymatgen
data_Ce2CrN3
_symmetry_space_group_name_H-M   'P 1'
_cell_length_a   3.46259382
_cell_length_b   3.74137293
_cell_length_c   6.79328797
_cell_angle_alpha   105.98376930
_cell_angle_beta   104.76493672
_cell_angle_gamma   89.99999995
_symmetry_Int_Tables_number   1
_chemical_formula_structural   Ce2CrN3
_chemical_formula_sum   'Ce2 Cr1 N3'
_cell_volume   81.57660931
_cell_formula_units_Z   1
loop_
 _symmetry_equiv_pos_site_id
 _symmetry_equiv_pos_as_xyz
  1  'x, y, z'
loop_
 _atom_site_type_symbol
 _atom_site_label
 _atom_site_symmetry_multiplicity
 _atom_site_fract_x
 _atom_site_fract_y
 _atom_site_fract_z
 _atom_site_occupancy
  N  N0  1  0.836231  0.836230  0.672463  1
  N  N1  1  0.163769  0.163770  0.327537  1
  N  N2  1  0.000000  0.500000  0.000000  1
  Cr  Cr3  1  0.000000  0.000000  0.000000  1
  Ce  Ce4  1  0.647062  0.647067  0.294124  1
  Ce  Ce5  1  0.352938  0.352933  0.705876  1
