# generated using pymatgen
data_LaV
_symmetry_space_group_name_H-M   'P 1'
_cell_length_a   3.71930204
_cell_length_b   5.25988440
_cell_length_c   3.77947496
_cell_angle_alpha   90.00000000
_cell_angle_beta   90.00000000
_cell_angle_gamma   45.00000000
_symmetry_Int_Tables_number   1
_chemical_formula_structural   LaV
_chemical_formula_sum   'La1 V1'
_cell_volume   52.28223231
_cell_formula_units_Z   1
loop_
 _symmetry_equiv_pos_site_id
 _symmetry_equiv_pos_as_xyz
  1  'x, y, z'
loop_
 _atom_site_type_symbol
 _atom_site_label
 _atom_site_symmetry_multiplicity
 _atom_site_fract_x
 _atom_site_fract_y
 _atom_site_fract_z
 _atom_site_occupancy
  La  La0  1  -0.000000  0.000000  0.000000  1
  V  V1  1  0.000000  0.500001  0.499999  1
