# generated using pymatgen
data_La(WO3)11
_symmetry_space_group_name_H-M   'P 1'
_cell_length_a   42.71633391
_cell_length_b   16.01390587
_cell_length_c   8.68541667
_cell_angle_alpha   29.81876656
_cell_angle_beta   26.57461903
_cell_angle_gamma   14.03375607
_symmetry_Int_Tables_number   1
_chemical_formula_structural   La(WO3)11
_chemical_formula_sum   'La1 W11 O33'
_cell_volume   644.52827325
_cell_formula_units_Z   1
loop_
 _symmetry_equiv_pos_site_id
 _symmetry_equiv_pos_as_xyz
  1  'x, y, z'
loop_
 _atom_site_type_symbol
 _atom_site_label
 _atom_site_symmetry_multiplicity
 _atom_site_fract_x
 _atom_site_fract_y
 _atom_site_fract_z
 _atom_site_occupancy
  La  La0  1  0.909094  -0.000007  -0.000001  1
  W  W1  1  0.048824  0.489609  0.506919  1
  W  W2  1  0.142165  0.490899  0.485065  1
  W  W3  1  0.232837  0.494367  0.488883  1
  W  W4  1  0.320809  0.497767  0.494490  1
  W  W5  1  0.409089  0.500008  0.500001  1
  W  W6  1  0.497371  0.502233  0.505532  1
  W  W7  1  0.585341  0.505648  0.511122  1
  W  W8  1  0.676018  0.509097  0.514929  1
  W  W9  1  0.769349  0.510408  0.493109  1
  W  W10  1  0.860210  0.513133  0.495490  1
  W  W11  1  0.957980  0.486854  0.504491  1
  O  O12  1  0.041793  0.000098  0.513505  1
  O  O13  1  0.041781  0.513695  -0.000231  1
  O  O14  1  0.135915  0.000352  0.501187  1
  O  O15  1  0.226866  0.000941  0.500660  1
  O  O16  1  0.130186  0.513445  0.000081  1
  O  O17  1  0.091730  0.497758  0.500665  1
  O  O18  1  0.317832  0.001209  0.498897  1
  O  O19  1  0.227537  0.499653  0.999076  1
  O  O20  1  0.174953  0.512166  0.514396  1
  O  O21  1  0.318226  0.499590  0.000760  1
  O  O22  1  0.409090  0.000000  0.500003  1
  O  O23  1  0.273444  0.498912  0.499029  1
  O  O24  1  0.500350  -0.001212  0.501102  1
  O  O25  1  0.409091  0.500002  -0.000003  1
  O  O26  1  0.363708  0.500249  0.499693  1
  O  O27  1  0.591316  -0.000945  0.499346  1
  O  O28  1  0.499957  0.500408  -0.000763  1
  O  O29  1  0.454471  0.499758  0.500308  1
  O  O30  1  0.590646  0.500346  0.000917  1
  O  O31  1  0.682268  -0.000357  0.498810  1
  O  O32  1  0.544737  0.501091  0.500966  1
  O  O33  1  0.687997  0.486555  -0.000086  1
  O  O34  1  0.776388  -0.000098  0.486494  1
  O  O35  1  0.643231  0.487828  0.485600  1
  O  O36  1  0.865049  -0.000364  0.486471  1
  O  O37  1  0.776401  0.486303  0.000230  1
  O  O38  1  0.726455  0.502234  0.499327  1
  O  O39  1  0.863595  0.500143  0.999879  1
  O  O40  1  0.953132  0.000366  0.513525  1
  O  O41  1  0.820154  0.488325  0.512592  1
  O  O42  1  0.954585  0.499858  0.000125  1
  O  O43  1  0.909091  0.499999  0.500003  1
  O  O44  1  0.998027  0.511677  0.487406  1
