# generated using pymatgen
data_LaW9O28
_symmetry_space_group_name_H-M   'P 1'
_cell_length_a   13.03894371
_cell_length_b   13.03894371
_cell_length_c   3.90282300
_cell_angle_alpha   90.00000000
_cell_angle_beta   90.00000000
_cell_angle_gamma   60.00000146
_symmetry_Int_Tables_number   1
_chemical_formula_structural   LaW9O28
_chemical_formula_sum   'La1 W9 O28'
_cell_volume   574.63796420
_cell_formula_units_Z   1
loop_
 _symmetry_equiv_pos_site_id
 _symmetry_equiv_pos_as_xyz
  1  'x, y, z'
loop_
 _atom_site_type_symbol
 _atom_site_label
 _atom_site_symmetry_multiplicity
 _atom_site_fract_x
 _atom_site_fract_y
 _atom_site_fract_z
 _atom_site_occupancy
  La  La0  1  0.666667  0.666667  0.979169  1
  W  W1  1  0.166667  0.166667  0.999532  1
  W  W2  1  0.003006  0.498497  0.001330  1
  W  W3  1  0.498497  0.003006  0.001330  1
  W  W4  1  0.666667  0.166667  0.999532  1
  W  W5  1  0.166667  0.666667  0.999532  1
  W  W6  1  0.498497  0.498497  0.001330  1
  W  W7  1  0.834836  0.330328  0.001330  1
  W  W8  1  0.330328  0.834836  0.001330  1
  W  W9  1  0.834836  0.834836  0.001330  1
  O  O10  1  0.214416  0.999938  0.999929  1
  O  O11  1  0.999938  0.214416  0.999929  1
  O  O12  1  0.166667  0.166667  0.499955  1
  O  O13  1  0.118918  0.333395  0.999929  1
  O  O14  1  0.333395  0.118918  0.999929  1
  O  O15  1  0.001224  0.499388  0.499449  1
  O  O16  1  0.499388  0.001224  0.499449  1
  O  O17  1  0.547687  0.118918  0.999929  1
  O  O18  1  0.118918  0.547687  0.999929  1
  O  O19  1  0.785646  0.999938  0.999929  1
  O  O20  1  0.999938  0.785646  0.999929  1
  O  O21  1  0.666667  0.166667  0.499955  1
  O  O22  1  0.166667  0.666667  0.499955  1
  O  O23  1  0.333395  0.547687  0.999929  1
  O  O24  1  0.547687  0.333395  0.999929  1
  O  O25  1  0.499388  0.499388  0.499449  1
  O  O26  1  0.785646  0.214416  0.999929  1
  O  O27  1  0.214416  0.785646  0.999929  1
  O  O28  1  0.666667  0.457095  0.998492  1
  O  O29  1  0.457095  0.666667  0.998492  1
  O  O30  1  0.833945  0.332109  0.499449  1
  O  O31  1  0.332109  0.833945  0.499449  1
  O  O32  1  0.876238  0.457095  0.998492  1
  O  O33  1  0.666667  0.666667  0.479207  1
  O  O34  1  0.457095  0.876238  0.998492  1
  O  O35  1  0.876238  0.666667  0.998492  1
  O  O36  1  0.666667  0.876238  0.998492  1
  O  O37  1  0.833945  0.833945  0.499449  1
