# generated using pymatgen
data_LaZr9O20
_symmetry_space_group_name_H-M   'P 1'
_cell_length_a   7.37237137
_cell_length_b   18.42228115
_cell_length_c   9.74607104
_cell_angle_alpha   19.10872571
_cell_angle_beta   55.50265927
_cell_angle_gamma   60.01398512
_symmetry_Int_Tables_number   1
_chemical_formula_structural   LaZr9O20
_chemical_formula_sum   'La1 Zr9 O20'
_cell_volume   354.03873927
_cell_formula_units_Z   1
loop_
 _symmetry_equiv_pos_site_id
 _symmetry_equiv_pos_as_xyz
  1  'x, y, z'
loop_
 _atom_site_type_symbol
 _atom_site_label
 _atom_site_symmetry_multiplicity
 _atom_site_fract_x
 _atom_site_fract_y
 _atom_site_fract_z
 _atom_site_occupancy
  La  La0  1  0.500000  0.800000  0.000000  1
  Zr  Zr1  1  0.997444  0.001894  0.999020  1
  Zr  Zr2  1  0.002256  0.200643  0.998058  1
  Zr  Zr3  1  0.997744  0.399357  0.001942  1
  Zr  Zr4  1  0.499423  0.001533  -0.000109  1
  Zr  Zr5  1  0.002556  0.598106  0.000980  1
  Zr  Zr6  1  0.498968  0.199663  0.000387  1
  Zr  Zr7  1  0.000000  0.800000  0.000000  1
  Zr  Zr8  1  0.501032  0.400336  0.999613  1
  Zr  Zr9  1  0.500577  0.598467  0.000109  1
  O  O10  1  0.122465  0.155333  0.241103  1
  O  O11  1  0.120801  0.357322  0.239762  1
  O  O12  1  0.369326  0.071192  0.724192  1
  O  O13  1  0.124244  0.537486  0.274516  1
  O  O14  1  0.637686  0.172317  0.198877  1
  O  O15  1  0.372501  0.243079  0.761540  1
  O  O16  1  0.627499  0.356921  0.238460  1
  O  O17  1  0.099548  0.751892  0.256440  1
  O  O18  1  0.875756  0.062514  0.725484  1
  O  O19  1  0.362314  0.427683  0.801123  1
  O  O20  1  0.125760  0.943614  0.259060  1
  O  O21  1  0.630674  0.528808  0.275808  1
  O  O22  1  0.879199  0.242678  0.760238  1
  O  O23  1  0.370183  0.649934  0.755734  1
  O  O24  1  0.633108  0.747208  0.268410  1
  O  O25  1  0.877535  0.444667  0.758897  1
  O  O26  1  0.629817  0.950066  0.244266  1
  O  O27  1  0.366892  0.852792  0.731590  1
  O  O28  1  0.874240  0.656386  0.740940  1
  O  O29  1  0.900452  0.848108  0.743560  1
