# generated using pymatgen
data_La10Mn9O30
_symmetry_space_group_name_H-M   'P 1'
_cell_length_a   11.03456134
_cell_length_b   27.64512257
_cell_length_c   18.17810594
_cell_angle_alpha   25.64742476
_cell_angle_beta   41.99460901
_cell_angle_gamma   61.17334271
_symmetry_Int_Tables_number   1
_chemical_formula_structural   La10Mn9O30
_chemical_formula_sum   'La20 Mn18 O60'
_cell_volume   1222.29932515
_cell_formula_units_Z   2
loop_
 _symmetry_equiv_pos_site_id
 _symmetry_equiv_pos_as_xyz
  1  'x, y, z'
loop_
 _atom_site_type_symbol
 _atom_site_label
 _atom_site_symmetry_multiplicity
 _atom_site_fract_x
 _atom_site_fract_y
 _atom_site_fract_z
 _atom_site_occupancy
  La  La0  1  0.008382  0.147362  0.245216  1
  La  La1  1  0.015630  0.349764  0.245770  1
  La  La2  1  0.000377  0.554239  0.243897  1
  La  La3  1  0.498308  0.155873  0.247848  1
  La  La4  1  0.980364  0.738963  0.276621  1
  La  La5  1  0.501683  0.354449  0.230259  1
  La  La6  1  0.996949  0.945227  0.271828  1
  La  La7  1  0.984370  0.450236  0.754230  1
  La  La8  1  0.519952  0.563622  0.219468  1
  La  La9  1  0.500532  0.054503  0.743586  1
  La  La10  1  0.991618  0.652638  0.754784  1
  La  La11  1  0.499468  0.745498  0.256414  1
  La  La12  1  0.480048  0.236377  0.780532  1
  La  La13  1  0.479954  0.945758  0.261657  1
  La  La14  1  0.498317  0.445551  0.769741  1
  La  La15  1  0.019636  0.061037  0.723379  1
  La  La16  1  0.501692  0.644127  0.752152  1
  La  La17  1  0.999623  0.245761  0.756103  1
  La  La18  1  0.520046  0.854242  0.738343  1
  La  La19  1  0.003050  0.854773  0.728172  1
  Mn  Mn20  1  0.998580  0.999778  0.001214  1
  Mn  Mn21  1  0.003755  0.204977  0.990467  1
  Mn  Mn22  1  0.000000  0.400000  -0.000000  1
  Mn  Mn23  1  0.504316  0.000394  0.995810  1
  Mn  Mn24  1  0.996245  0.595024  0.009533  1
  Mn  Mn25  1  0.996246  0.097406  0.504407  1
  Mn  Mn26  1  0.506968  0.203238  0.993319  1
  Mn  Mn27  1  0.001420  0.800222  0.998787  1
  Mn  Mn28  1  0.996439  0.299640  0.502673  1
  Mn  Mn29  1  0.003561  0.500360  0.497327  1
  Mn  Mn30  1  0.493032  0.596762  0.006682  1
  Mn  Mn31  1  0.497697  0.095676  0.507491  1
  Mn  Mn32  1  0.003755  0.702594  0.495593  1
  Mn  Mn33  1  0.495684  0.799606  0.004191  1
  Mn  Mn34  1  0.502810  0.300220  0.496977  1
  Mn  Mn35  1  0.497190  0.499780  0.503023  1
  Mn  Mn36  1  0.502303  0.704324  0.492509  1
  Mn  Mn37  1  0.500000  0.900000  0.500000  1
  O  O38  1  0.243810  0.076964  0.221862  1
  O  O39  1  0.290121  0.189610  0.183284  1
  O  O40  1  0.196623  0.246865  0.278517  1
  O  O41  1  0.431321  0.017461  0.321735  1
  O  O42  1  0.258327  0.384759  0.204888  1
  O  O43  1  0.213485  0.466494  0.249197  1
  O  O44  1  0.440165  0.213083  0.329105  1
  O  O45  1  0.723954  0.073194  0.231298  1
  O  O46  1  0.071288  0.177226  0.679213  1
  O  O47  1  0.280780  0.593646  0.180676  1
  O  O48  1  0.215565  0.005795  0.823049  1
  O  O49  1  0.783832  0.192967  0.176961  1
  O  O50  1  0.213132  0.662680  0.256039  1
  O  O51  1  0.429230  0.422110  0.319677  1
  O  O52  1  0.713812  0.263076  0.251741  1
  O  O53  1  0.941813  0.040006  0.288310  1
  O  O54  1  0.085615  0.380986  0.667199  1
  O  O55  1  0.284599  0.138590  0.746319  1
  O  O56  1  0.298398  0.798347  0.167106  1
  O  O57  1  0.219149  0.208292  0.819152  1
  O  O58  1  0.787152  0.393675  0.176033  1
  O  O59  1  0.206538  0.860678  0.259170  1
  O  O60  1  0.426447  0.623955  0.322367  1
  O  O61  1  0.719024  0.465515  0.243814  1
  O  O62  1  0.932031  0.224037  0.316720  1
  O  O63  1  0.067969  0.575963  0.683280  1
  O  O64  1  0.280976  0.334485  0.756186  1
  O  O65  1  0.573553  0.176045  0.677633  1
  O  O66  1  0.304698  0.990368  0.169148  1
  O  O67  1  0.212848  0.406325  0.823967  1
  O  O68  1  0.780851  0.591708  0.180848  1
  O  O69  1  0.701602  0.001653  0.832894  1
  O  O70  1  0.424190  0.817926  0.328166  1
  O  O71  1  0.715401  0.661410  0.253681  1
  O  O72  1  0.914385  0.419014  0.332801  1
  O  O73  1  0.058187  0.759994  0.711690  1
  O  O74  1  0.286188  0.536924  0.748259  1
  O  O75  1  0.570770  0.377890  0.680323  1
  O  O76  1  0.786868  0.137320  0.743961  1
  O  O77  1  0.216168  0.607033  0.823039  1
  O  O78  1  0.784435  0.794205  0.176951  1
  O  O79  1  0.719220  0.206354  0.819324  1
  O  O80  1  0.711348  0.865793  0.248668  1
  O  O81  1  0.928712  0.622774  0.320787  1
  O  O82  1  0.065967  0.977007  0.686689  1
  O  O83  1  0.276046  0.726806  0.768702  1
  O  O84  1  0.559835  0.586917  0.670895  1
  O  O85  1  0.786515  0.333506  0.750803  1
  O  O86  1  0.218883  0.811310  0.813502  1
  O  O87  1  0.781117  0.988690  0.186498  1
  O  O88  1  0.741673  0.415241  0.795112  1
  O  O89  1  0.934033  0.822993  0.313311  1
  O  O90  1  0.288652  0.934207  0.751332  1
  O  O91  1  0.568679  0.782539  0.678265  1
  O  O92  1  0.803377  0.553135  0.721483  1
  O  O93  1  0.709879  0.610390  0.816716  1
  O  O94  1  0.575810  0.982074  0.671834  1
  O  O95  1  0.756190  0.723036  0.778138  1
  O  O96  1  0.695302  0.809632  0.830852  1
  O  O97  1  0.793462  0.939322  0.740830  1
