# generated using pymatgen
data_La5(Mo2O7)3
_symmetry_space_group_name_H-M   'P 1'
_cell_length_a   5.91046049
_cell_length_b   11.33710033
_cell_length_c   25.77772647
_cell_angle_alpha   90.00000000
_cell_angle_beta   90.00000000
_cell_angle_gamma   90.00000000
_symmetry_Int_Tables_number   1
_chemical_formula_structural   La5(Mo2O7)3
_chemical_formula_sum   'La20 Mo24 O84'
_cell_volume   1727.30058295
_cell_formula_units_Z   4
loop_
 _symmetry_equiv_pos_site_id
 _symmetry_equiv_pos_as_xyz
  1  'x, y, z'
loop_
 _atom_site_type_symbol
 _atom_site_label
 _atom_site_symmetry_multiplicity
 _atom_site_fract_x
 _atom_site_fract_y
 _atom_site_fract_z
 _atom_site_occupancy
  La  La0  1  0.253078  0.475140  0.969352  1
  La  La1  1  0.259643  0.067613  0.813818  1
  La  La2  1  0.759643  0.432387  0.186182  1
  La  La3  1  0.778449  0.686461  0.050970  1
  La  La4  1  0.278449  0.813539  0.949030  1
  La  La5  1  0.221551  0.186461  0.449030  1
  La  La6  1  0.752071  0.278658  0.899765  1
  La  La7  1  0.256877  0.437913  0.816100  1
  La  La8  1  0.247929  0.778658  0.600235  1
  La  La9  1  0.243123  0.562087  0.316100  1
  La  La10  1  0.246922  0.524860  0.469352  1
  La  La11  1  0.240357  0.932387  0.313818  1
  La  La12  1  0.743123  0.937913  0.683900  1
  La  La13  1  0.252071  0.221342  0.100235  1
  La  La14  1  0.756877  0.062087  0.183900  1
  La  La15  1  0.746922  0.975140  0.530648  1
  La  La16  1  0.721551  0.313539  0.550970  1
  La  La17  1  0.740357  0.567613  0.686182  1
  La  La18  1  0.753078  0.024860  0.030648  1
  La  La19  1  0.747929  0.721342  0.399765  1
  Mo  Mo20  1  0.502057  0.250748  0.688831  1
  Mo  Mo21  1  0.736537  0.800838  0.277870  1
  Mo  Mo22  1  0.747357  0.974045  0.894524  1
  Mo  Mo23  1  0.497943  0.750748  0.811169  1
  Mo  Mo24  1  0.260566  0.925313  0.080945  1
  Mo  Mo25  1  0.263463  0.300838  0.222130  1
  Mo  Mo26  1  0.242667  0.837644  0.460707  1
  Mo  Mo27  1  0.742667  0.662356  0.539293  1
  Mo  Mo28  1  0.239434  0.074687  0.580945  1
  Mo  Mo29  1  0.006007  0.752067  0.815795  1
  Mo  Mo30  1  0.236537  0.699162  0.722130  1
  Mo  Mo31  1  0.997943  0.749252  0.188831  1
  Mo  Mo32  1  0.247357  0.525955  0.105476  1
  Mo  Mo33  1  0.257333  0.162356  0.960707  1
  Mo  Mo34  1  0.739434  0.425313  0.419055  1
  Mo  Mo35  1  0.252643  0.474045  0.605476  1
  Mo  Mo36  1  0.493993  0.247933  0.315795  1
  Mo  Mo37  1  0.760566  0.574687  0.919055  1
  Mo  Mo38  1  0.993993  0.252067  0.684205  1
  Mo  Mo39  1  0.506007  0.747933  0.184205  1
  Mo  Mo40  1  0.757333  0.337644  0.039293  1
  Mo  Mo41  1  0.002057  0.249252  0.311169  1
  Mo  Mo42  1  0.752643  0.025955  0.394524  1
  Mo  Mo43  1  0.763463  0.199162  0.777870  1
  O  O44  1  0.472901  0.027678  0.114027  1
  O  O45  1  0.255656  0.673218  0.856048  1
  O  O46  1  0.512465  0.333060  0.455264  1
  O  O47  1  0.744344  0.173218  0.643952  1
  O  O48  1  0.450609  0.416239  0.059679  1
  O  O49  1  0.168445  0.602050  0.044615  1
  O  O50  1  0.319124  0.710375  0.420478  1
  O  O51  1  0.488203  0.399672  0.264205  1
  O  O52  1  0.237353  0.851001  0.773312  1
  O  O53  1  0.755656  0.826782  0.143952  1
  O  O54  1  0.021680  0.886756  0.873671  1
  O  O55  1  0.806986  0.455679  0.984284  1
  O  O56  1  0.250462  0.326793  0.727003  1
  O  O57  1  0.489673  0.600972  0.761809  1
  O  O58  1  0.286128  0.430769  0.166247  1
  O  O59  1  0.986073  0.540324  0.395278  1
  O  O60  1  0.248663  0.823951  0.142794  1
  O  O61  1  0.948198  0.410814  0.093953  1
  O  O62  1  0.972901  0.472322  0.885973  1
  O  O63  1  0.491676  0.734112  0.320425  1
  O  O64  1  0.486219  0.887615  0.860837  1
  O  O65  1  0.521680  0.613244  0.126329  1
  O  O66  1  0.944740  0.753766  0.481817  1
  O  O67  1  0.513781  0.387615  0.639163  1
  O  O68  1  0.989673  0.899028  0.238191  1
  O  O69  1  0.551802  0.589186  0.593953  1
  O  O70  1  0.751337  0.323951  0.357206  1
  O  O71  1  0.008324  0.265888  0.820425  1
  O  O72  1  0.749538  0.826793  0.772997  1
  O  O73  1  0.010327  0.399028  0.261809  1
  O  O74  1  0.180876  0.289625  0.920478  1
  O  O75  1  0.748663  0.676049  0.857206  1
  O  O76  1  0.668445  0.897950  0.955385  1
  O  O77  1  0.991676  0.765888  0.679575  1
  O  O78  1  0.487904  0.763904  0.678138  1
  O  O79  1  0.987904  0.736096  0.321862  1
  O  O80  1  0.693014  0.544321  0.484284  1
  O  O81  1  0.762647  0.351001  0.726688  1
  O  O82  1  0.055260  0.253766  0.018183  1
  O  O83  1  0.527099  0.527678  0.385973  1
  O  O84  1  0.486073  0.959676  0.604722  1
  O  O85  1  0.306986  0.044321  0.015716  1
  O  O86  1  0.819124  0.789625  0.579522  1
  O  O87  1  0.262647  0.148999  0.273312  1
  O  O88  1  0.513927  0.459676  0.895278  1
  O  O89  1  0.713872  0.930769  0.333753  1
  O  O90  1  0.444740  0.746234  0.518183  1
  O  O91  1  0.448198  0.089186  0.906047  1
  O  O92  1  0.981886  0.355085  0.464381  1
  O  O93  1  0.987535  0.666940  0.955264  1
  O  O94  1  0.510327  0.100972  0.738191  1
  O  O95  1  0.950609  0.083761  0.940321  1
  O  O96  1  0.481886  0.144915  0.535619  1
  O  O97  1  0.249538  0.673207  0.227003  1
  O  O98  1  0.549391  0.916239  0.440321  1
  O  O99  1  0.051802  0.910814  0.406047  1
  O  O100  1  0.013927  0.040324  0.104722  1
  O  O101  1  0.978320  0.386756  0.626329  1
  O  O102  1  0.027099  0.972322  0.614027  1
  O  O103  1  0.750462  0.173207  0.272997  1
  O  O104  1  0.831555  0.102050  0.455385  1
  O  O105  1  0.988203  0.100328  0.735795  1
  O  O106  1  0.786128  0.069231  0.833753  1
  O  O107  1  0.018114  0.855085  0.035619  1
  O  O108  1  0.478320  0.113244  0.373671  1
  O  O109  1  0.012096  0.236096  0.178138  1
  O  O110  1  0.737353  0.648999  0.226688  1
  O  O111  1  0.049391  0.583761  0.559679  1
  O  O112  1  0.244344  0.326782  0.356048  1
  O  O113  1  0.555260  0.246234  0.981817  1
  O  O114  1  0.012465  0.166940  0.544736  1
  O  O115  1  0.511797  0.899672  0.235795  1
  O  O116  1  0.011797  0.600328  0.764205  1
  O  O117  1  0.013781  0.112385  0.360837  1
  O  O118  1  0.986219  0.612385  0.139163  1
  O  O119  1  0.512096  0.263904  0.821862  1
  O  O120  1  0.331555  0.397950  0.544615  1
  O  O121  1  0.508324  0.234112  0.179575  1
  O  O122  1  0.213872  0.569231  0.666247  1
  O  O123  1  0.251337  0.176049  0.642794  1
  O  O124  1  0.518114  0.644915  0.964381  1
  O  O125  1  0.680876  0.210375  0.079522  1
  O  O126  1  0.193014  0.955679  0.515716  1
  O  O127  1  0.487535  0.833060  0.044736  1
