# generated using pymatgen
data_La5Ti5O17
_symmetry_space_group_name_H-M   'P 1'
_cell_length_a   5.56587910
_cell_length_b   7.88957691
_cell_length_c   31.92568819
_cell_angle_alpha   97.09065626
_cell_angle_beta   90.00000000
_cell_angle_gamma   90.00000000
_symmetry_Int_Tables_number   1
_chemical_formula_structural   La5Ti5O17
_chemical_formula_sum   'La20 Ti20 O68'
_cell_volume   1391.21270615
_cell_formula_units_Z   4
loop_
 _symmetry_equiv_pos_site_id
 _symmetry_equiv_pos_as_xyz
  1  'x, y, z'
loop_
 _atom_site_type_symbol
 _atom_site_label
 _atom_site_symmetry_multiplicity
 _atom_site_fract_x
 _atom_site_fract_y
 _atom_site_fract_z
 _atom_site_occupancy
  La  La0  1  0.047430  0.643265  0.293909  1
  La  La1  1  0.452570  0.643265  0.793909  1
  La  La2  1  0.908756  0.856891  0.717243  1
  La  La3  1  0.502010  0.297637  0.594093  1
  La  La4  1  0.499099  0.747901  0.996244  1
  La  La5  1  0.091244  0.143109  0.282757  1
  La  La6  1  0.408756  0.143109  0.782757  1
  La  La7  1  0.498756  0.793067  0.587149  1
  La  La8  1  1.000901  0.747901  0.496244  1
  La  La9  1  0.002010  0.702363  0.905907  1
  La  La10  1  0.501244  0.206933  0.412851  1
  La  La11  1  0.997990  0.297637  0.094093  1
  La  La12  1  0.500901  0.252099  0.003756  1
  La  La13  1  0.497990  0.702363  0.405907  1
  La  La14  1  0.591244  0.856891  0.217243  1
  La  La15  1  0.001244  0.793067  0.087149  1
  La  La16  1  0.952570  0.356735  0.706091  1
  La  La17  1  -0.000901  0.252099  0.503756  1
  La  La18  1  0.998756  0.206933  0.912851  1
  La  La19  1  0.547430  0.356735  0.206091  1
  Ti  Ti20  1  0.009336  0.454930  0.406897  1
  Ti  Ti21  1  0.510289  0.047255  0.092503  1
  Ti  Ti22  1  0.990664  0.545070  0.593103  1
  Ti  Ti23  1  0.490664  0.454930  0.906897  1
  Ti  Ti24  1  0.509336  0.545070  0.093103  1
  Ti  Ti25  1  0.458273  0.590586  0.678040  1
  Ti  Ti26  1  0.541727  0.409414  0.321960  1
  Ti  Ti27  1  0.958273  0.409414  0.821960  1
  Ti  Ti28  1  0.463214  0.085569  0.676682  1
  Ti  Ti29  1  0.489711  0.952745  0.907497  1
  Ti  Ti30  1  0.500000  0.500000  0.500000  1
  Ti  Ti31  1  0.989711  0.047255  0.592503  1
  Ti  Ti32  1  0.963214  0.914431  0.823318  1
  Ti  Ti33  1  0.036786  0.085569  0.176682  1
  Ti  Ti34  1  0.000000  0.000000  0.000000  1
  Ti  Ti35  1  0.500000  0.000000  0.500000  1
  Ti  Ti36  1  0.536786  0.914431  0.323318  1
  Ti  Ti37  1  0.000000  0.500000  0.000000  1
  Ti  Ti38  1  0.041727  0.590586  0.178040  1
  Ti  Ti39  1  0.010289  0.952745  0.407497  1
  O  O40  1  0.200325  0.090332  0.712018  1
  O  O41  1  0.942066  0.749741  0.999639  1
  O  O42  1  0.283218  0.497103  0.449079  1
  O  O43  1  0.808208  0.425618  0.880150  1
  O  O44  1  0.452815  0.205742  0.910628  1
  O  O45  1  0.294044  0.480794  0.862179  1
  O  O46  1  0.691792  0.425618  0.380150  1
  O  O47  1  0.216782  0.497103  0.949079  1
  O  O48  1  0.047185  0.205742  0.410628  1
  O  O49  1  0.804172  0.954955  0.879708  1
  O  O50  1  0.542794  0.834306  0.669274  1
  O  O51  1  0.071931  0.336657  0.172010  1
  O  O52  1  0.314053  0.875971  0.278551  1
  O  O53  1  0.571931  0.663343  0.327990  1
  O  O54  1  0.057934  0.250259  0.000361  1
  O  O55  1  0.799675  0.909668  0.287982  1
  O  O56  1  0.957206  0.834306  0.169274  1
  O  O57  1  0.287779  0.882970  0.863396  1
  O  O58  1  0.438168  0.290161  0.080146  1
  O  O59  1  0.695828  0.954955  0.379708  1
  O  O60  1  0.195828  0.045045  0.120292  1
  O  O61  1  0.308208  0.574382  0.619850  1
  O  O62  1  0.283486  0.552180  0.035546  1
  O  O63  1  0.281697  0.952175  0.449657  1
  O  O64  1  0.042794  0.165694  0.830726  1
  O  O65  1  0.212221  0.882970  0.363396  1
  O  O66  1  0.700325  0.909668  0.787982  1
  O  O67  1  0.299675  0.090332  0.212018  1
  O  O68  1  0.557934  0.749741  0.499639  1
  O  O69  1  0.428069  0.336657  0.672010  1
  O  O70  1  0.938168  0.709839  0.419854  1
  O  O71  1  0.217328  0.983161  0.535882  1
  O  O72  1  0.787779  0.117030  0.636604  1
  O  O73  1  0.825031  0.600612  0.225154  1
  O  O74  1  0.218303  0.952175  0.949657  1
  O  O75  1  0.783486  0.447820  0.464454  1
  O  O76  1  0.952815  0.794258  0.589372  1
  O  O77  1  0.782672  0.016839  0.464118  1
  O  O78  1  0.705956  0.519206  0.137821  1
  O  O79  1  0.205956  0.480794  0.362179  1
  O  O80  1  0.815397  0.378349  0.292313  1
  O  O81  1  0.718303  0.047825  0.550343  1
  O  O82  1  0.717328  0.016839  0.964118  1
  O  O83  1  0.716514  0.447820  0.964454  1
  O  O84  1  0.547185  0.794258  0.089372  1
  O  O85  1  0.174969  0.399388  0.774846  1
  O  O86  1  0.684603  0.378349  0.792313  1
  O  O87  1  0.282672  0.983161  0.035882  1
  O  O88  1  0.184603  0.621651  0.707687  1
  O  O89  1  0.928069  0.663343  0.827990  1
  O  O90  1  0.685947  0.124029  0.721449  1
  O  O91  1  0.191792  0.574382  0.119850  1
  O  O92  1  0.814053  0.124029  0.221449  1
  O  O93  1  0.457206  0.165694  0.330726  1
  O  O94  1  0.716782  0.502897  0.550921  1
  O  O95  1  0.304172  0.045045  0.620292  1
  O  O96  1  0.315397  0.621651  0.207687  1
  O  O97  1  0.185947  0.875971  0.778551  1
  O  O98  1  0.794044  0.519206  0.637821  1
  O  O99  1  0.781697  0.047825  0.050343  1
  O  O100  1  0.325031  0.399388  0.274846  1
  O  O101  1  0.061832  0.290161  0.580146  1
  O  O102  1  0.712221  0.117030  0.136604  1
  O  O103  1  0.674969  0.600612  0.725154  1
  O  O104  1  0.216514  0.552180  0.535546  1
  O  O105  1  0.442066  0.250259  0.500361  1
  O  O106  1  0.561832  0.709839  0.919854  1
  O  O107  1  0.783218  0.502897  0.050921  1
