# generated using pymatgen
data_La11Mn12O36
_symmetry_space_group_name_H-M   'P 1'
_cell_length_a   11.11552735
_cell_length_b   7.89438273
_cell_length_c   23.59215598
_cell_angle_alpha   90.00000000
_cell_angle_beta   90.00000000
_cell_angle_gamma   45.04226937
_symmetry_Int_Tables_number   1
_chemical_formula_structural   La11Mn12O36
_chemical_formula_sum   'La22 Mn24 O72'
_cell_volume   1464.94406331
_cell_formula_units_Z   2
loop_
 _symmetry_equiv_pos_site_id
 _symmetry_equiv_pos_as_xyz
  1  'x, y, z'
loop_
 _atom_site_type_symbol
 _atom_site_label
 _atom_site_symmetry_multiplicity
 _atom_site_fract_x
 _atom_site_fract_y
 _atom_site_fract_z
 _atom_site_occupancy
  La  La0  1  0.259241  0.003937  0.417199  1
  La  La1  1  0.259241  0.003937  0.749468  1
  La  La2  1  0.236175  0.503918  0.248992  1
  La  La3  1  0.236175  0.503918  0.917675  1
  La  La4  1  0.231654  0.509601  0.583333  1
  La  La5  1  0.261473  0.494009  0.083333  1
  La  La6  1  0.257395  0.499223  0.419013  1
  La  La7  1  0.257395  0.499223  0.747654  1
  La  La8  1  0.253285  0.984370  0.583333  1
  La  La9  1  0.244099  0.991019  0.245917  1
  La  La10  1  0.244099  0.991019  0.920750  1
  La  La11  1  0.746715  0.015630  0.083333  1
  La  La12  1  0.755901  0.008981  0.420750  1
  La  La13  1  0.755901  0.008981  0.745917  1
  La  La14  1  0.738527  0.505991  0.583333  1
  La  La15  1  0.742605  0.500777  0.247654  1
  La  La16  1  0.742605  0.500777  0.919013  1
  La  La17  1  0.763825  0.496082  0.748992  1
  La  La18  1  0.768346  0.490399  0.083333  1
  La  La19  1  0.763825  0.496082  0.417675  1
  La  La20  1  0.740759  0.996063  0.249468  1
  La  La21  1  0.740759  0.996063  0.917199  1
  Mn  Mn22  1  -0.000045  0.000573  0.001220  1
  Mn  Mn23  1  -0.000045  0.000573  0.165447  1
  Mn  Mn24  1  0.000000  0.000000  0.333333  1
  Mn  Mn25  1  1.000045  0.999427  0.501220  1
  Mn  Mn26  1  1.000045  0.999427  0.665447  1
  Mn  Mn27  1  0.000000  0.000000  0.833333  1
  Mn  Mn28  1  0.496678  0.000520  0.001309  1
  Mn  Mn29  1  0.496678  0.000520  0.165358  1
  Mn  Mn30  1  0.500000  0.000000  0.333333  1
  Mn  Mn31  1  0.503322  0.999480  0.501309  1
  Mn  Mn32  1  0.503322  0.999480  0.665358  1
  Mn  Mn33  1  0.500000  0.000000  0.833333  1
  Mn  Mn34  1  0.503154  0.494543  0.501413  1
  Mn  Mn35  1  0.500000  0.500000  0.833333  1
  Mn  Mn36  1  0.496846  0.505457  0.165254  1
  Mn  Mn37  1  0.503154  0.494543  0.665254  1
  Mn  Mn38  1  0.496846  0.505457  0.001413  1
  Mn  Mn39  1  0.500000  0.500000  0.333333  1
  Mn  Mn40  1  0.002553  0.495929  0.165710  1
  Mn  Mn41  1  0.997447  0.504071  0.500957  1
  Mn  Mn42  1  0.000000  0.500000  0.833333  1
  Mn  Mn43  1  0.002553  0.495929  0.000957  1
  Mn  Mn44  1  0.000000  0.500000  0.333333  1
  Mn  Mn45  1  0.997447  0.504071  0.665710  1
  O  O46  1  0.995480  0.255048  0.005655  1
  O  O47  1  0.995480  0.255048  0.161011  1
  O  O48  1  0.023227  0.228270  0.346306  1
  O  O49  1  0.022800  0.227993  0.486267  1
  O  O50  1  0.022800  0.227993  0.680400  1
  O  O51  1  0.023227  0.228270  0.820361  1
  O  O52  1  0.043810  0.424673  0.583333  1
  O  O53  1  0.042939  0.426031  0.915622  1
  O  O54  1  0.042939  0.426031  0.251045  1
  O  O55  1  0.250020  0.275193  0.347599  1
  O  O56  1  0.249593  0.290925  0.159645  1
  O  O57  1  0.249593  0.290925  0.007021  1
  O  O58  1  0.251188  0.263069  0.485935  1
  O  O59  1  0.250020  0.275193  0.819068  1
  O  O60  1  0.251188  0.263069  0.680732  1
  O  O61  1  0.019094  0.926228  0.083333  1
  O  O62  1  0.031389  0.933125  0.416013  1
  O  O63  1  0.031389  0.933125  0.750654  1
  O  O64  1  0.468721  0.071007  0.251292  1
  O  O65  1  0.447862  0.071850  0.583333  1
  O  O66  1  0.468721  0.071007  0.915375  1
  O  O67  1  0.248645  0.728216  0.181203  1
  O  O68  1  0.249558  0.728518  0.319205  1
  O  O69  1  0.251217  0.731390  0.512515  1
  O  O70  1  0.249558  0.728518  0.847462  1
  O  O71  1  0.251217  0.731390  0.654151  1
  O  O72  1  0.248645  0.728216  0.985464  1
  O  O73  1  0.526459  0.223571  0.346862  1
  O  O74  1  0.520689  0.228671  0.157610  1
  O  O75  1  0.520689  0.228671  0.009056  1
  O  O76  1  0.526459  0.223571  0.819805  1
  O  O77  1  0.508634  0.241490  0.682579  1
  O  O78  1  0.508634  0.241490  0.484088  1
  O  O79  1  0.457686  0.572526  0.751572  1
  O  O80  1  0.472593  0.530117  0.083333  1
  O  O81  1  0.457686  0.572526  0.415095  1
  O  O82  1  0.527407  0.469883  0.583333  1
  O  O83  1  0.542314  0.427474  0.251572  1
  O  O84  1  0.542314  0.427474  0.915095  1
  O  O85  1  0.479311  0.771329  0.657610  1
  O  O86  1  0.491366  0.758510  0.182579  1
  O  O87  1  0.473541  0.776429  0.319805  1
  O  O88  1  0.479311  0.771329  0.509056  1
  O  O89  1  0.473541  0.776429  0.846862  1
  O  O90  1  0.491366  0.758510  0.984088  1
  O  O91  1  0.751355  0.271784  0.485464  1
  O  O92  1  0.750442  0.271482  0.347462  1
  O  O93  1  0.751355  0.271784  0.681203  1
  O  O94  1  0.748783  0.268610  0.154151  1
  O  O95  1  0.748783  0.268610  0.012515  1
  O  O96  1  0.750442  0.271482  0.819205  1
  O  O97  1  0.531279  0.928993  0.415375  1
  O  O98  1  0.552138  0.928150  0.083333  1
  O  O99  1  0.531279  0.928993  0.751292  1
  O  O100  1  0.968611  0.066875  0.250654  1
  O  O101  1  0.980906  0.073772  0.583333  1
  O  O102  1  0.968611  0.066875  0.916013  1
  O  O103  1  0.750407  0.709075  0.507021  1
  O  O104  1  0.749980  0.724807  0.847599  1
  O  O105  1  0.748812  0.736931  0.180732  1
  O  O106  1  0.749980  0.724807  0.319068  1
  O  O107  1  0.750407  0.709075  0.659645  1
  O  O108  1  0.748812  0.736931  0.985935  1
  O  O109  1  0.956190  0.575327  0.083333  1
  O  O110  1  0.957061  0.573969  0.415622  1
  O  O111  1  0.957061  0.573969  0.751045  1
  O  O112  1  0.977200  0.772007  0.180400  1
  O  O113  1  0.976773  0.771730  0.320361  1
  O  O114  1  0.004520  0.744952  0.505655  1
  O  O115  1  0.976773  0.771730  0.846306  1
  O  O116  1  0.004520  0.744952  0.661011  1
  O  O117  1  0.977200  0.772007  0.986267  1
