# generated using pymatgen
data_La13Cd58
_symmetry_space_group_name_H-M   'P 1'
_cell_length_a   16.14375215
_cell_length_b   16.14375246
_cell_length_c   15.76529702
_cell_angle_alpha   90.00000000
_cell_angle_beta   90.00000000
_cell_angle_gamma   119.99999934
_symmetry_Int_Tables_number   1
_chemical_formula_structural   La13Cd58
_chemical_formula_sum   'La26 Cd116'
_cell_volume   3558.29346554
_cell_formula_units_Z   2
loop_
 _symmetry_equiv_pos_site_id
 _symmetry_equiv_pos_as_xyz
  1  'x, y, z'
loop_
 _atom_site_type_symbol
 _atom_site_label
 _atom_site_symmetry_multiplicity
 _atom_site_fract_x
 _atom_site_fract_y
 _atom_site_fract_z
 _atom_site_occupancy
  La  La0  1  0.411287  0.205644  0.551826  1
  La  La1  1  0.872255  0.744510  0.250000  1
  La  La2  1  0.205644  0.411287  0.051826  1
  La  La3  1  0.084575  0.542287  0.750000  1
  La  La4  1  0.794356  0.588713  0.948174  1
  La  La5  1  0.794356  0.205644  0.551826  1
  La  La6  1  0.915425  0.457713  0.250000  1
  La  La7  1  0.794356  0.205644  0.948174  1
  La  La8  1  0.794356  0.588713  0.551826  1
  La  La9  1  0.457713  0.915425  0.750000  1
  La  La10  1  0.127745  0.872255  0.750000  1
  La  La11  1  0.872255  0.127745  0.250000  1
  La  La12  1  0.588713  0.794356  0.051826  1
  La  La13  1  0.588713  0.794356  0.448174  1
  La  La14  1  0.205644  0.794356  0.448174  1
  La  La15  1  0.000000  0.000000  0.000000  1
  La  La16  1  0.457713  0.542287  0.750000  1
  La  La17  1  0.542287  0.084575  0.250000  1
  La  La18  1  0.127745  0.255490  0.750000  1
  La  La19  1  0.744510  0.872255  0.750000  1
  La  La20  1  0.205644  0.411287  0.448174  1
  La  La21  1  0.411287  0.205644  0.948174  1
  La  La22  1  0.000000  0.000000  0.500000  1
  La  La23  1  0.255490  0.127745  0.250000  1
  La  La24  1  0.205644  0.794356  0.051826  1
  La  La25  1  0.542287  0.457713  0.250000  1
  Cd  Cd26  1  0.905806  0.094194  0.656155  1
  Cd  Cd27  1  0.000000  0.199850  0.000000  1
  Cd  Cd28  1  0.634795  0.964185  0.602777  1
  Cd  Cd29  1  0.365205  0.329390  0.397223  1
  Cd  Cd30  1  0.670610  0.634795  0.102777  1
  Cd  Cd31  1  0.600527  0.399473  0.053063  1
  Cd  Cd32  1  0.634795  0.670610  0.897223  1
  Cd  Cd33  1  0.964185  0.634795  0.102777  1
  Cd  Cd34  1  0.201055  0.600527  0.946937  1
  Cd  Cd35  1  0.094194  0.905806  0.343845  1
  Cd  Cd36  1  0.562493  0.124986  0.643495  1
  Cd  Cd37  1  0.811611  0.905806  0.343845  1
  Cd  Cd38  1  0.731601  0.268399  0.750000  1
  Cd  Cd39  1  0.437507  0.875014  0.356505  1
  Cd  Cd40  1  0.329390  0.365205  0.897223  1
  Cd  Cd41  1  0.035815  0.670610  0.897223  1
  Cd  Cd42  1  0.529851  0.764925  0.841446  1
  Cd  Cd43  1  0.800150  0.800150  0.000000  1
  Cd  Cd44  1  0.365205  0.035815  0.397223  1
  Cd  Cd45  1  0.000000  0.199850  0.500000  1
  Cd  Cd46  1  0.917378  0.637519  0.750000  1
  Cd  Cd47  1  0.199850  0.199850  0.500000  1
  Cd  Cd48  1  0.670610  0.035815  0.102777  1
  Cd  Cd49  1  0.600527  0.399473  0.446937  1
  Cd  Cd50  1  0.764925  0.529851  0.341446  1
  Cd  Cd51  1  0.764925  0.529851  0.158554  1
  Cd  Cd52  1  0.964185  0.329390  0.102777  1
  Cd  Cd53  1  0.666667  0.333333  0.594205  1
  Cd  Cd54  1  0.279859  0.917378  0.250000  1
  Cd  Cd55  1  0.470149  0.235075  0.341446  1
  Cd  Cd56  1  0.035815  0.365205  0.602777  1
  Cd  Cd57  1  0.333333  0.666667  0.750000  1
  Cd  Cd58  1  0.720141  0.082622  0.750000  1
  Cd  Cd59  1  0.035815  0.365205  0.897223  1
  Cd  Cd60  1  0.800150  0.000000  0.500000  1
  Cd  Cd61  1  0.600527  0.201055  0.446937  1
  Cd  Cd62  1  0.670610  0.035815  0.397223  1
  Cd  Cd63  1  0.362481  0.082622  0.750000  1
  Cd  Cd64  1  0.917378  0.279859  0.750000  1
  Cd  Cd65  1  1.000000  0.800150  0.000000  1
  Cd  Cd66  1  0.437507  0.562493  0.143495  1
  Cd  Cd67  1  0.124986  0.562493  0.356505  1
  Cd  Cd68  1  0.500000  0.000000  0.500000  1
  Cd  Cd69  1  0.905806  0.811611  0.843845  1
  Cd  Cd70  1  0.094194  0.188389  0.156155  1
  Cd  Cd71  1  0.035815  0.670610  0.602777  1
  Cd  Cd72  1  0.329390  0.365205  0.602777  1
  Cd  Cd73  1  0.562493  0.124986  0.856505  1
  Cd  Cd74  1  0.201055  0.600527  0.553063  1
  Cd  Cd75  1  0.634795  0.670610  0.602777  1
  Cd  Cd76  1  0.437507  0.562493  0.356505  1
  Cd  Cd77  1  0.000000  0.000000  0.250000  1
  Cd  Cd78  1  0.600527  0.201055  0.053063  1
  Cd  Cd79  1  0.798945  0.399473  0.446937  1
  Cd  Cd80  1  0.731601  0.463202  0.750000  1
  Cd  Cd81  1  0.399473  0.798945  0.946937  1
  Cd  Cd82  1  0.666667  0.333333  0.905795  1
  Cd  Cd83  1  0.235075  0.470149  0.841446  1
  Cd  Cd84  1  0.764925  0.235075  0.158554  1
  Cd  Cd85  1  0.279859  0.362481  0.250000  1
  Cd  Cd86  1  0.399473  0.600527  0.553063  1
  Cd  Cd87  1  0.365205  0.035815  0.102777  1
  Cd  Cd88  1  0.764925  0.235075  0.341446  1
  Cd  Cd89  1  0.811611  0.905806  0.156155  1
  Cd  Cd90  1  0.329390  0.964185  0.897223  1
  Cd  Cd91  1  0.875014  0.437507  0.856505  1
  Cd  Cd92  1  0.905806  0.811611  0.656155  1
  Cd  Cd93  1  0.124986  0.562493  0.143495  1
  Cd  Cd94  1  0.964185  0.329390  0.397223  1
  Cd  Cd95  1  0.637519  0.720141  0.250000  1
  Cd  Cd96  1  0.562493  0.437507  0.856505  1
  Cd  Cd97  1  0.470149  0.235075  0.158554  1
  Cd  Cd98  1  0.800150  0.800150  0.500000  1
  Cd  Cd99  1  0.000000  0.000000  0.750000  1
  Cd  Cd100  1  0.188389  0.094194  0.656155  1
  Cd  Cd101  1  0.199850  0.199850  0.000000  1
  Cd  Cd102  1  0.199850  0.000000  0.500000  1
  Cd  Cd103  1  0.082622  0.362481  0.250000  1
  Cd  Cd104  1  0.670610  0.634795  0.397223  1
  Cd  Cd105  1  0.529851  0.764925  0.658554  1
  Cd  Cd106  1  0.798945  0.399473  0.053063  1
  Cd  Cd107  1  0.365205  0.329390  0.102777  1
  Cd  Cd108  1  0.235075  0.764925  0.841446  1
  Cd  Cd109  1  0.666667  0.333333  0.250000  1
  Cd  Cd110  1  0.437507  0.875014  0.143495  1
  Cd  Cd111  1  0.500000  0.500000  0.000000  1
  Cd  Cd112  1  0.000000  0.500000  0.500000  1
  Cd  Cd113  1  0.235075  0.764925  0.658554  1
  Cd  Cd114  1  0.333333  0.666667  0.405795  1
  Cd  Cd115  1  0.199850  0.000000  0.000000  1
  Cd  Cd116  1  0.082622  0.720141  0.250000  1
  Cd  Cd117  1  1.000000  0.800150  0.500000  1
  Cd  Cd118  1  0.634795  0.964185  0.897223  1
  Cd  Cd119  1  0.500000  0.500000  0.500000  1
  Cd  Cd120  1  0.188389  0.094194  0.843845  1
  Cd  Cd121  1  0.536798  0.268399  0.750000  1
  Cd  Cd122  1  0.094194  0.905806  0.156155  1
  Cd  Cd123  1  0.905806  0.094194  0.843845  1
  Cd  Cd124  1  0.562493  0.437507  0.643495  1
  Cd  Cd125  1  0.362481  0.279859  0.750000  1
  Cd  Cd126  1  0.268399  0.731601  0.250000  1
  Cd  Cd127  1  0.964185  0.634795  0.397223  1
  Cd  Cd128  1  0.333333  0.666667  0.094205  1
  Cd  Cd129  1  0.268399  0.536798  0.250000  1
  Cd  Cd130  1  0.800150  0.000000  0.000000  1
  Cd  Cd131  1  0.637519  0.917378  0.250000  1
  Cd  Cd132  1  0.500000  0.000000  0.000000  1
  Cd  Cd133  1  0.875014  0.437507  0.643495  1
  Cd  Cd134  1  0.329390  0.964185  0.602777  1
  Cd  Cd135  1  0.000000  0.500000  0.000000  1
  Cd  Cd136  1  0.094194  0.188389  0.343845  1
  Cd  Cd137  1  0.399473  0.600527  0.946937  1
  Cd  Cd138  1  0.235075  0.470149  0.658554  1
  Cd  Cd139  1  0.720141  0.637519  0.750000  1
  Cd  Cd140  1  0.399473  0.798945  0.553063  1
  Cd  Cd141  1  0.463202  0.731601  0.250000  1
