# generated using pymatgen
data_La7(RuO6)3
_symmetry_space_group_name_H-M   'P 1'
_cell_length_a   19.75908802
_cell_length_b   19.75908819
_cell_length_c   19.75908843
_cell_angle_alpha   29.05831891
_cell_angle_beta   29.05831802
_cell_angle_gamma   29.05831887
_symmetry_Int_Tables_number   1
_chemical_formula_structural   La7(RuO6)3
_chemical_formula_sum   'La28 Ru12 O72'
_cell_volume   1609.77693914
_cell_formula_units_Z   4
loop_
 _symmetry_equiv_pos_site_id
 _symmetry_equiv_pos_as_xyz
  1  'x, y, z'
loop_
 _atom_site_type_symbol
 _atom_site_label
 _atom_site_symmetry_multiplicity
 _atom_site_fract_x
 _atom_site_fract_y
 _atom_site_fract_z
 _atom_site_occupancy
  La  La0  1  0.994260  0.435711  0.721698  1
  La  La1  1  0.396578  0.396578  0.396578  1
  La  La2  1  0.564289  0.278302  0.005740  1
  La  La3  1  0.064289  0.505740  0.778302  1
  La  La4  1  0.551347  0.813494  0.197876  1
  La  La5  1  0.802124  0.448653  0.186506  1
  La  La6  1  0.948653  0.302124  0.686506  1
  La  La7  1  0.278302  0.005740  0.564289  1
  La  La8  1  0.103422  0.103422  0.103422  1
  La  La9  1  0.896578  0.896578  0.896578  1
  La  La10  1  0.778302  0.064289  0.505740  1
  La  La11  1  0.697876  0.313494  0.051347  1
  La  La12  1  0.448653  0.186506  0.802124  1
  La  La13  1  0.186506  0.802124  0.448653  1
  La  La14  1  0.313494  0.051347  0.697876  1
  La  La15  1  0.197876  0.551347  0.813494  1
  La  La16  1  0.435711  0.721698  0.994260  1
  La  La17  1  0.221698  0.935711  0.494260  1
  La  La18  1  0.302124  0.686506  0.948653  1
  La  La19  1  0.686506  0.948653  0.302124  1
  La  La20  1  0.935711  0.494260  0.221698  1
  La  La21  1  0.603422  0.603422  0.603422  1
  La  La22  1  0.051347  0.697876  0.313494  1
  La  La23  1  0.494260  0.221698  0.935711  1
  La  La24  1  0.505740  0.778302  0.064289  1
  La  La25  1  0.813494  0.197876  0.551347  1
  La  La26  1  0.005740  0.564289  0.278302  1
  La  La27  1  0.721698  0.994260  0.435711  1
  Ru  Ru28  1  0.080061  0.750000  0.419939  1
  Ru  Ru29  1  0.419939  0.080061  0.750000  1
  Ru  Ru30  1  0.250000  0.580061  0.919939  1
  Ru  Ru31  1  0.161432  0.161432  0.161432  1
  Ru  Ru32  1  0.750000  0.419939  0.080061  1
  Ru  Ru33  1  0.580061  0.919939  0.250000  1
  Ru  Ru34  1  0.500000  0.500000  0.500000  1
  Ru  Ru35  1  0.661432  0.661432  0.661432  1
  Ru  Ru36  1  0.919939  0.250000  0.580061  1
  Ru  Ru37  1  0.338568  0.338568  0.338568  1
  Ru  Ru38  1  0.000000  0.000000  0.000000  1
  Ru  Ru39  1  0.838568  0.838568  0.838568  1
  O  O40  1  0.791658  0.298772  0.732993  1
  O  O41  1  0.075045  0.327016  0.017241  1
  O  O42  1  0.219434  0.426968  0.020740  1
  O  O43  1  0.669073  0.061430  0.021044  1
  O  O44  1  0.780566  0.573032  0.979260  1
  O  O45  1  0.708342  0.767007  0.201228  1
  O  O46  1  0.195672  0.514386  0.254447  1
  O  O47  1  0.719434  0.520740  0.926968  1
  O  O48  1  0.280566  0.479260  0.073032  1
  O  O49  1  0.830927  0.478956  0.438570  1
  O  O50  1  0.291658  0.232993  0.798772  1
  O  O51  1  0.330927  0.938570  0.978956  1
  O  O52  1  0.573032  0.979260  0.780566  1
  O  O53  1  0.926968  0.719434  0.520740  1
  O  O54  1  0.298772  0.732993  0.791658  1
  O  O55  1  0.804328  0.485614  0.745553  1
  O  O56  1  0.438570  0.830927  0.478956  1
  O  O57  1  0.745553  0.804328  0.485614  1
  O  O58  1  0.767007  0.201228  0.708342  1
  O  O59  1  0.018690  0.187794  0.851378  1
  O  O60  1  0.517241  0.827016  0.575045  1
  O  O61  1  0.478956  0.438570  0.830927  1
  O  O62  1  0.017241  0.075045  0.327016  1
  O  O63  1  0.020740  0.219434  0.426968  1
  O  O64  1  0.201228  0.708342  0.767007  1
  O  O65  1  0.924955  0.672984  0.982759  1
  O  O66  1  0.245553  0.985614  0.304328  1
  O  O67  1  0.327016  0.017241  0.075045  1
  O  O68  1  0.267007  0.208342  0.701228  1
  O  O69  1  0.851378  0.018690  0.187794  1
  O  O70  1  0.978956  0.330927  0.938570  1
  O  O71  1  0.827016  0.575045  0.517241  1
  O  O72  1  0.482759  0.172984  0.424955  1
  O  O73  1  0.672984  0.982759  0.924955  1
  O  O74  1  0.521044  0.561430  0.169073  1
  O  O75  1  0.073032  0.280566  0.479260  1
  O  O76  1  0.208342  0.701228  0.267007  1
  O  O77  1  0.232993  0.798772  0.291658  1
  O  O78  1  0.701228  0.267007  0.208342  1
  O  O79  1  0.187794  0.851378  0.018690  1
  O  O80  1  0.172984  0.424955  0.482759  1
  O  O81  1  0.148622  0.981310  0.812206  1
  O  O82  1  0.426968  0.020740  0.219434  1
  O  O83  1  0.985614  0.304328  0.245553  1
  O  O84  1  0.424955  0.482759  0.172984  1
  O  O85  1  0.695672  0.754447  0.014386  1
  O  O86  1  0.798772  0.291658  0.232993  1
  O  O87  1  0.169073  0.521044  0.561430  1
  O  O88  1  0.481310  0.648622  0.312206  1
  O  O89  1  0.518690  0.351378  0.687794  1
  O  O90  1  0.520740  0.926968  0.719434  1
  O  O91  1  0.061430  0.021044  0.669073  1
  O  O92  1  0.254447  0.195672  0.514386  1
  O  O93  1  0.021044  0.669073  0.061430  1
  O  O94  1  0.979260  0.780566  0.573032  1
  O  O95  1  0.514386  0.254447  0.195672  1
  O  O96  1  0.938570  0.978956  0.330927  1
  O  O97  1  0.304328  0.245553  0.985614  1
  O  O98  1  0.982759  0.924955  0.672984  1
  O  O99  1  0.648622  0.312206  0.481310  1
  O  O100  1  0.561430  0.169073  0.521044  1
  O  O101  1  0.351378  0.687794  0.518690  1
  O  O102  1  0.479260  0.073032  0.280566  1
  O  O103  1  0.014386  0.695672  0.754447  1
  O  O104  1  0.812206  0.148622  0.981310  1
  O  O105  1  0.485614  0.745553  0.804328  1
  O  O106  1  0.312206  0.481310  0.648622  1
  O  O107  1  0.732993  0.791658  0.298772  1
  O  O108  1  0.754447  0.014386  0.695672  1
  O  O109  1  0.981310  0.812206  0.148622  1
  O  O110  1  0.687794  0.518690  0.351378  1
  O  O111  1  0.575045  0.517241  0.827016  1
