# generated using pymatgen
data_La(BIr)4
_symmetry_space_group_name_H-M   'P 1'
_cell_length_a   3.99082727
_cell_length_b   7.74708754
_cell_length_c   7.74708754
_cell_angle_alpha   90.00000000
_cell_angle_beta   90.00000000
_cell_angle_gamma   90.00000000
_symmetry_Int_Tables_number   1
_chemical_formula_structural   La(BIr)4
_chemical_formula_sum   'La2 B8 Ir8'
_cell_volume   239.51893832
_cell_formula_units_Z   2
loop_
 _symmetry_equiv_pos_site_id
 _symmetry_equiv_pos_as_xyz
  1  'x, y, z'
loop_
 _atom_site_type_symbol
 _atom_site_label
 _atom_site_symmetry_multiplicity
 _atom_site_fract_x
 _atom_site_fract_y
 _atom_site_fract_z
 _atom_site_occupancy
  B  B0  1  0.856830  0.029745  0.908512  1
  B  B1  1  0.143170  0.529745  0.408512  1
  B  B2  1  0.356830  0.091488  0.529745  1
  B  B3  1  0.356830  0.408512  0.970255  1
  B  B4  1  0.856830  0.470255  0.591488  1
  B  B5  1  0.143170  0.970255  0.091488  1
  B  B6  1  0.643170  0.908512  0.470255  1
  B  B7  1  0.643170  0.591488  0.029745  1
  La  La8  1  0.250000  0.750000  0.750000  1
  La  La9  1  0.750000  0.250000  0.250000  1
  Ir  Ir10  1  0.356874  0.359604  0.591445  1
  Ir  Ir11  1  0.356874  0.140396  0.908555  1
  Ir  Ir12  1  0.856874  0.408555  0.859604  1
  Ir  Ir13  1  0.143126  0.908555  0.359604  1
  Ir  Ir14  1  0.643126  0.640396  0.408555  1
  Ir  Ir15  1  0.643126  0.859604  0.091445  1
  Ir  Ir16  1  0.143126  0.591445  0.140396  1
  Ir  Ir17  1  0.856874  0.091445  0.640396  1
