# generated using pymatgen
data_La(BRu)4
_symmetry_space_group_name_H-M   'P 1'
_cell_length_a   4.01887235
_cell_length_b   7.59259004
_cell_length_c   7.59259004
_cell_angle_alpha   90.00000000
_cell_angle_beta   90.00000000
_cell_angle_gamma   90.00000000
_symmetry_Int_Tables_number   1
_chemical_formula_structural   La(BRu)4
_chemical_formula_sum   'La2 B8 Ru8'
_cell_volume   231.67763642
_cell_formula_units_Z   2
loop_
 _symmetry_equiv_pos_site_id
 _symmetry_equiv_pos_as_xyz
  1  'x, y, z'
loop_
 _atom_site_type_symbol
 _atom_site_label
 _atom_site_symmetry_multiplicity
 _atom_site_fract_x
 _atom_site_fract_y
 _atom_site_fract_z
 _atom_site_occupancy
  B  B0  1  0.859399  0.038129  0.916515  1
  B  B1  1  0.359399  0.083485  0.538129  1
  B  B2  1  0.140601  0.961871  0.083485  1
  B  B3  1  0.640601  0.916515  0.461871  1
  B  B4  1  0.640601  0.583485  0.038129  1
  B  B5  1  0.140601  0.538129  0.416515  1
  B  B6  1  0.359399  0.416515  0.961871  1
  B  B7  1  0.859399  0.461871  0.583485  1
  Ru  Ru8  1  0.358684  0.358025  0.606026  1
  Ru  Ru9  1  0.858684  0.106026  0.641975  1
  Ru  Ru10  1  0.141316  0.893974  0.358025  1
  Ru  Ru11  1  0.641316  0.641975  0.393974  1
  Ru  Ru12  1  0.641316  0.858025  0.106026  1
  Ru  Ru13  1  0.141316  0.606026  0.141975  1
  Ru  Ru14  1  0.358684  0.141975  0.893974  1
  Ru  Ru15  1  0.858684  0.393974  0.858025  1
  La  La16  1  0.250000  0.750000  0.750000  1
  La  La17  1  0.750000  0.250000  0.250000  1
