# generated using pymatgen
data_LaCoO3
_symmetry_space_group_name_H-M   'P 1'
_cell_length_a   5.46420315
_cell_length_b   5.47218853
_cell_length_c   5.43575666
_cell_angle_alpha   61.02703035
_cell_angle_beta   61.13805031
_cell_angle_gamma   60.98788794
_symmetry_Int_Tables_number   1
_chemical_formula_structural   LaCoO3
_chemical_formula_sum   'La2 Co2 O6'
_cell_volume   117.64928454
_cell_formula_units_Z   2
loop_
 _symmetry_equiv_pos_site_id
 _symmetry_equiv_pos_as_xyz
  1  'x, y, z'
loop_
 _atom_site_type_symbol
 _atom_site_label
 _atom_site_symmetry_multiplicity
 _atom_site_fract_x
 _atom_site_fract_y
 _atom_site_fract_z
 _atom_site_occupancy
  La  La0  1  0.748828  0.749772  0.249834  1
  La  La1  1  0.251173  0.250227  0.750168  1
  Co  Co2  1  0.500001  0.500000  0.000000  1
  Co  Co3  1  0.000000  -0.000000  0.499999  1
  O  O4  1  0.255565  0.683495  0.304572  1
  O  O5  1  0.744434  0.316506  0.695426  1
  O  O6  1  0.808778  0.258494  0.183214  1
  O  O7  1  0.191223  0.741507  0.816787  1
  O  O8  1  0.681484  0.808443  0.751744  1
  O  O9  1  0.318515  0.191558  0.248253  1
