# generated using pymatgen
data_LaCoO3
_symmetry_space_group_name_H-M   'P 1'
_cell_length_a   5.52917740
_cell_length_b   5.45441183
_cell_length_c   5.49402771
_cell_angle_alpha   60.61648859
_cell_angle_beta   61.68609979
_cell_angle_gamma   61.17885333
_symmetry_Int_Tables_number   1
_chemical_formula_structural   LaCoO3
_chemical_formula_sum   'La2 Co2 O6'
_cell_volume   120.20030459
_cell_formula_units_Z   2
loop_
 _symmetry_equiv_pos_site_id
 _symmetry_equiv_pos_as_xyz
  1  'x, y, z'
loop_
 _atom_site_type_symbol
 _atom_site_label
 _atom_site_symmetry_multiplicity
 _atom_site_fract_x
 _atom_site_fract_y
 _atom_site_fract_z
 _atom_site_occupancy
  La  La0  1  0.753340  0.748650  0.247724  1
  La  La1  1  0.246657  0.251349  0.752273  1
  Co  Co2  1  0.500000  0.500001  0.000000  1
  Co  Co3  1  0.000000  0.000001  0.500000  1
  O  O4  1  0.243841  0.690122  0.319154  1
  O  O5  1  0.756164  0.309881  0.680845  1
  O  O6  1  0.828194  0.248631  0.182955  1
  O  O7  1  0.171805  0.751365  0.817046  1
  O  O8  1  0.667181  0.804432  0.760503  1
  O  O9  1  0.332819  0.195569  0.239498  1
