# generated using pymatgen
data_La(CuO2)2
_symmetry_space_group_name_H-M   'P 1'
_cell_length_a   5.92346307
_cell_length_b   5.92227129
_cell_length_c   6.44970136
_cell_angle_alpha   117.26954416
_cell_angle_beta   117.27551190
_cell_angle_gamma   90.11665111
_symmetry_Int_Tables_number   1
_chemical_formula_structural   La(CuO2)2
_chemical_formula_sum   'La2 Cu4 O8'
_cell_volume   172.19445491
_cell_formula_units_Z   2
loop_
 _symmetry_equiv_pos_site_id
 _symmetry_equiv_pos_as_xyz
  1  'x, y, z'
loop_
 _atom_site_type_symbol
 _atom_site_label
 _atom_site_symmetry_multiplicity
 _atom_site_fract_x
 _atom_site_fract_y
 _atom_site_fract_z
 _atom_site_occupancy
  O  O0  1  0.702068  0.529518  0.848991  1
  O  O1  1  0.146923  0.819473  0.848991  1
  O  O2  1  0.297932  0.470482  0.151009  1
  O  O3  1  0.853077  0.180527  0.151009  1
  O  O4  1  0.530344  0.147186  0.348821  1
  O  O5  1  0.818477  0.701635  0.348821  1
  O  O6  1  0.181523  0.298365  0.651179  1
  O  O7  1  0.469656  0.852814  0.651179  1
  Cu  Cu8  1  0.500000  0.000000  0.000000  1
  Cu  Cu9  1  0.500000  0.500000  0.000000  1
  Cu  Cu10  1  0.000000  0.500000  0.500000  1
  Cu  Cu11  1  0.500000  0.500000  0.500000  1
  La  La12  1  0.874948  0.124948  0.749897  1
  La  La13  1  0.125052  0.875052  0.250103  1
