# generated using pymatgen
data_LaHg3
_symmetry_space_group_name_H-M   'P 1'
_cell_length_a   5.17210110
_cell_length_b   6.91076348
_cell_length_c   6.91076348
_cell_angle_alpha   119.99789686
_cell_angle_beta   90.00000000
_cell_angle_gamma   90.00000000
_symmetry_Int_Tables_number   1
_chemical_formula_structural   LaHg3
_chemical_formula_sum   'La2 Hg6'
_cell_volume   213.92369885
_cell_formula_units_Z   2
loop_
 _symmetry_equiv_pos_site_id
 _symmetry_equiv_pos_as_xyz
  1  'x, y, z'
loop_
 _atom_site_type_symbol
 _atom_site_label
 _atom_site_symmetry_multiplicity
 _atom_site_fract_x
 _atom_site_fract_y
 _atom_site_fract_z
 _atom_site_occupancy
  La  La0  1  0.750000  0.666673  0.333327  1
  La  La1  1  0.250000  0.333327  0.666673  1
  Hg  Hg2  1  0.750000  0.162225  0.324395  1
  Hg  Hg3  1  0.750000  0.162228  0.837772  1
  Hg  Hg4  1  0.750000  0.675605  0.837775  1
  Hg  Hg5  1  0.250000  0.837775  0.675605  1
  Hg  Hg6  1  0.250000  0.837772  0.162228  1
  Hg  Hg7  1  0.250000  0.324395  0.162225  1
