# generated using pymatgen
data_LaMnO3
_symmetry_space_group_name_H-M   'P 1'
_cell_length_a   5.53913651
_cell_length_b   5.63362987
_cell_length_c   5.63362988
_cell_angle_alpha   60.93944440
_cell_angle_beta   59.91658656
_cell_angle_gamma   59.91658660
_symmetry_Int_Tables_number   1
_chemical_formula_structural   LaMnO3
_chemical_formula_sum   'La2 Mn2 O6'
_cell_volume   125.00743963
_cell_formula_units_Z   2
loop_
 _symmetry_equiv_pos_site_id
 _symmetry_equiv_pos_as_xyz
  1  'x, y, z'
loop_
 _atom_site_type_symbol
 _atom_site_label
 _atom_site_symmetry_multiplicity
 _atom_site_fract_x
 _atom_site_fract_y
 _atom_site_fract_z
 _atom_site_occupancy
  O  O0  1  0.241383  0.666879  0.271609  1
  O  O1  1  0.258617  0.228391  0.833121  1
  O  O2  1  0.758617  0.333121  0.728391  1
  O  O3  1  0.741383  0.771609  0.166879  1
  O  O4  1  0.250000  0.818876  0.681124  1
  O  O5  1  0.750000  0.181124  0.318876  1
  Mn  Mn6  1  0.500000  0.500000  0.500000  1
  Mn  Mn7  1  0.000000  0.000000  0.000000  1
  La  La8  1  0.750000  0.756630  0.743370  1
  La  La9  1  0.250000  0.243370  0.256630  1
