# generated using pymatgen
data_La2MoO6
_symmetry_space_group_name_H-M   'P 1'
_cell_length_a   4.31710121
_cell_length_b   4.31708203
_cell_length_c   8.70610480
_cell_angle_alpha   104.33960154
_cell_angle_beta   104.33953605
_cell_angle_gamma   90.02098320
_symmetry_Int_Tables_number   1
_chemical_formula_structural   La2MoO6
_chemical_formula_sum   'La2 Mo1 O6'
_cell_volume   151.97582938
_cell_formula_units_Z   1
loop_
 _symmetry_equiv_pos_site_id
 _symmetry_equiv_pos_as_xyz
  1  'x, y, z'
loop_
 _atom_site_type_symbol
 _atom_site_label
 _atom_site_symmetry_multiplicity
 _atom_site_fract_x
 _atom_site_fract_y
 _atom_site_fract_z
 _atom_site_occupancy
  La  La0  1  0.180510  0.180509  0.360840  1
  La  La1  1  0.819506  0.819505  0.638934  1
  Mo  Mo2  1  0.499956  0.499956  -0.000015  1
  O  O3  1  0.334224  0.799994  0.134493  1
  O  O4  1  0.199849  0.199848  0.865638  1
  O  O5  1  0.799993  0.334225  0.134494  1
  O  O6  1  0.665911  0.665912  0.865756  1
  O  O7  1  0.750023  0.250029  0.499930  1
  O  O8  1  0.250029  0.750023  0.499931  1
