# generated using pymatgen
data_LaNb7O19
_symmetry_space_group_name_H-M   'P 1'
_cell_length_a   6.34107619
_cell_length_b   6.34107619
_cell_length_c   20.38250988
_cell_angle_alpha   90.00000000
_cell_angle_beta   90.00000000
_cell_angle_gamma   119.99999999
_symmetry_Int_Tables_number   1
_chemical_formula_structural   LaNb7O19
_chemical_formula_sum   'La2 Nb14 O38'
_cell_volume   709.76443880
_cell_formula_units_Z   2
loop_
 _symmetry_equiv_pos_site_id
 _symmetry_equiv_pos_as_xyz
  1  'x, y, z'
loop_
 _atom_site_type_symbol
 _atom_site_label
 _atom_site_symmetry_multiplicity
 _atom_site_fract_x
 _atom_site_fract_y
 _atom_site_fract_z
 _atom_site_occupancy
  O  O0  1  0.666667  0.333333  0.836183  1
  O  O1  1  0.666667  0.333333  0.664059  1
  O  O2  1  0.666667  0.333333  0.437810  1
  O  O3  1  0.666667  0.333333  0.176086  1
  O  O4  1  0.000000  0.000000  0.868619  1
  O  O5  1  0.000000  0.000000  0.642407  1
  O  O6  1  0.000000  0.000000  0.470178  1
  O  O7  1  0.000000  0.000000  0.130329  1
  O  O8  1  0.711331  0.615763  0.944734  1
  O  O9  1  0.904432  0.288669  0.944734  1
  O  O10  1  0.384237  0.095568  0.944734  1
  O  O11  1  0.709419  0.633256  0.556132  1
  O  O12  1  0.923837  0.290581  0.556132  1
  O  O13  1  0.366744  0.076163  0.556132  1
  O  O14  1  0.742920  0.700165  0.750351  1
  O  O15  1  0.957245  0.257080  0.750351  1
  O  O16  1  0.090929  0.424277  0.153178  1
  O  O17  1  0.575723  0.666652  0.153178  1
  O  O18  1  0.333348  0.909071  0.153178  1
  O  O19  1  0.087736  0.666722  0.459481  1
  O  O20  1  0.333278  0.421015  0.459481  1
  O  O21  1  0.578985  0.912264  0.459481  1
  O  O22  1  0.089784  0.666656  0.653261  1
  O  O23  1  0.333344  0.423128  0.653261  1
  O  O24  1  0.576872  0.910216  0.653261  1
  O  O25  1  0.087765  0.666613  0.847015  1
  O  O26  1  0.333387  0.421152  0.847015  1
  O  O27  1  0.578848  0.912235  0.847015  1
  O  O28  1  0.388848  0.284746  0.058914  1
  O  O29  1  0.715254  0.104102  0.058914  1
  O  O30  1  0.895898  0.611152  0.058914  1
  O  O31  1  0.277757  0.229348  0.247484  1
  O  O32  1  0.770652  0.048409  0.247484  1
  O  O33  1  0.951591  0.722243  0.247484  1
  O  O34  1  0.282463  0.044455  0.361657  1
  O  O35  1  0.955545  0.238008  0.361657  1
  O  O36  1  0.761992  0.717537  0.361657  1
  O  O37  1  0.299835  0.042755  0.750351  1
  Nb  Nb38  1  0.666667  0.333333  0.994898  1
  Nb  Nb39  1  0.000000  0.000000  0.311645  1
  Nb  Nb40  1  0.692682  0.667509  0.841664  1
  Nb  Nb41  1  0.974827  0.307318  0.841664  1
  Nb  Nb42  1  0.332491  0.025173  0.841664  1
  Nb  Nb43  1  0.692328  0.666686  0.653278  1
  Nb  Nb44  1  0.974358  0.307672  0.653278  1
  Nb  Nb45  1  0.333314  0.025642  0.653278  1
  Nb  Nb46  1  0.691857  0.665770  0.464848  1
  Nb  Nb47  1  0.973913  0.308143  0.464848  1
  Nb  Nb48  1  0.334230  0.026087  0.464848  1
  Nb  Nb49  1  0.978442  0.666697  0.153228  1
  Nb  Nb50  1  0.688254  0.021558  0.153228  1
  Nb  Nb51  1  0.333303  0.311746  0.153228  1
  La  La52  1  0.666667  0.333333  0.306039  1
  La  La53  1  0.000000  0.000000  1.000372  1
