# generated using pymatgen
data_LaNbO4
_symmetry_space_group_name_H-M   'P 1'
_cell_length_a   5.44762617
_cell_length_b   5.44814996
_cell_length_c   7.02045085
_cell_angle_alpha   112.83410332
_cell_angle_beta   112.83028933
_cell_angle_gamma   89.99414753
_symmetry_Int_Tables_number   1
_chemical_formula_structural   LaNbO4
_chemical_formula_sum   'La2 Nb2 O8'
_cell_volume   174.19110616
_cell_formula_units_Z   2
loop_
 _symmetry_equiv_pos_site_id
 _symmetry_equiv_pos_as_xyz
  1  'x, y, z'
loop_
 _atom_site_type_symbol
 _atom_site_label
 _atom_site_symmetry_multiplicity
 _atom_site_fract_x
 _atom_site_fract_y
 _atom_site_fract_z
 _atom_site_occupancy
  O  O0  1  0.950052  0.785429  0.577921  1
  O  O1  1  0.792516  0.449990  0.077966  1
  O  O2  1  0.285401  0.127966  0.077958  1
  O  O3  1  0.627922  0.292535  0.577938  1
  O  O4  1  0.372078  0.707465  0.422062  1
  O  O5  1  0.714599  0.872034  0.922042  1
  O  O6  1  0.207484  0.550010  0.922034  1
  O  O7  1  0.049948  0.214571  0.422079  1
  Nb  Nb8  1  0.875002  0.624990  0.749939  1
  Nb  Nb9  1  0.124998  0.375010  0.250061  1
  La  La10  1  0.374999  0.124998  0.749997  1
  La  La11  1  0.625001  0.875002  0.250003  1
