# generated using pymatgen
data_LaNbO4
_symmetry_space_group_name_H-M   'P 1'
_cell_length_a   5.36072070
_cell_length_b   5.51639115
_cell_length_c   6.96834192
_cell_angle_alpha   112.57141969
_cell_angle_beta   111.85858249
_cell_angle_gamma   91.78527669
_symmetry_Int_Tables_number   1
_chemical_formula_structural   LaNbO4
_chemical_formula_sum   'La2 Nb2 O8'
_cell_volume   172.92123173
_cell_formula_units_Z   2
loop_
 _symmetry_equiv_pos_site_id
 _symmetry_equiv_pos_as_xyz
  1  'x, y, z'
loop_
 _atom_site_type_symbol
 _atom_site_label
 _atom_site_symmetry_multiplicity
 _atom_site_fract_x
 _atom_site_fract_y
 _atom_site_fract_z
 _atom_site_occupancy
  La  La0  1  0.376715  0.126715  0.753431  1
  La  La1  1  0.623285  0.873285  0.246569  1
  Nb  Nb2  1  0.865113  0.615113  0.730225  1
  Nb  Nb3  1  0.134887  0.384887  0.269775  1
  O  O4  1  0.799259  0.137077  0.083956  1
  O  O5  1  0.284696  0.446879  0.083956  1
  O  O6  1  0.200741  0.862923  0.916044  1
  O  O7  1  0.715304  0.553121  0.916044  1
  O  O8  1  0.607577  0.779972  0.571559  1
  O  O9  1  0.963982  0.291587  0.571559  1
  O  O10  1  0.392423  0.220028  0.428441  1
  O  O11  1  0.036018  0.708413  0.428441  1
