# generated using pymatgen
data_La2NiO4
_symmetry_space_group_name_H-M   'P 1'
_cell_length_a   5.54724309
_cell_length_b   5.55175928
_cell_length_c   6.84802372
_cell_angle_alpha   113.91336588
_cell_angle_beta   90.00000000
_cell_angle_gamma   90.00000000
_symmetry_Int_Tables_number   1
_chemical_formula_structural   La2NiO4
_chemical_formula_sum   'La4 Ni2 O8'
_cell_volume   192.79466843
_cell_formula_units_Z   2
loop_
 _symmetry_equiv_pos_site_id
 _symmetry_equiv_pos_as_xyz
  1  'x, y, z'
loop_
 _atom_site_type_symbol
 _atom_site_label
 _atom_site_symmetry_multiplicity
 _atom_site_fract_x
 _atom_site_fract_y
 _atom_site_fract_z
 _atom_site_occupancy
  La  La0  1  0.000000  0.636102  0.272204  1
  La  La1  1  -0.000000  0.363898  0.727796  1
  La  La2  1  0.500000  0.863049  0.726098  1
  La  La3  1  0.500000  0.136951  0.273902  1
  Ni  Ni4  1  -0.000000  -0.000000  -0.000000  1
  Ni  Ni5  1  0.500000  0.500000  -0.000000  1
  O  O6  1  -0.000000  0.820011  0.640021  1
  O  O7  1  0.000000  0.179989  0.359979  1
  O  O8  1  0.500000  0.677997  0.355993  1
  O  O9  1  0.500000  0.322003  0.644007  1
  O  O10  1  0.749339  0.751196  -0.000000  1
  O  O11  1  0.749339  0.248804  -0.000000  1
  O  O12  1  0.250661  0.248804  -0.000000  1
  O  O13  1  0.250661  0.751196  -0.000000  1
