# generated using pymatgen
data_La(Ni2B)6
_symmetry_space_group_name_H-M   'P 1'
_cell_length_a   6.06220537
_cell_length_b   6.06220538
_cell_length_c   11.06203329
_cell_angle_alpha   90.00000000
_cell_angle_beta   90.00000000
_cell_angle_gamma   104.73658538
_symmetry_Int_Tables_number   1
_chemical_formula_structural   La(Ni2B)6
_chemical_formula_sum   'La2 Ni24 B12'
_cell_volume   393.16071391
_cell_formula_units_Z   2
loop_
 _symmetry_equiv_pos_site_id
 _symmetry_equiv_pos_as_xyz
  1  'x, y, z'
loop_
 _atom_site_type_symbol
 _atom_site_label
 _atom_site_symmetry_multiplicity
 _atom_site_fract_x
 _atom_site_fract_y
 _atom_site_fract_z
 _atom_site_occupancy
  B  B0  1  0.896993  0.486090  0.377898  1
  B  B1  1  0.103007  0.513910  0.877898  1
  B  B2  1  0.824228  0.250787  0.113713  1
  B  B3  1  0.175772  0.749213  0.613713  1
  B  B4  1  0.749213  0.175772  0.613713  1
  B  B5  1  0.250787  0.824228  0.113713  1
  B  B6  1  0.013848  0.013848  0.838166  1
  B  B7  1  0.986152  0.986152  0.338166  1
  B  B8  1  0.335702  0.335702  0.167427  1
  B  B9  1  0.664298  0.664298  0.667427  1
  B  B10  1  0.513910  0.103007  0.877898  1
  B  B11  1  0.486090  0.896993  0.377898  1
  Ni  Ni12  1  0.619320  0.353059  0.743336  1
  Ni  Ni13  1  0.646941  0.380680  0.243336  1
  Ni  Ni14  1  0.225795  0.844129  0.932439  1
  Ni  Ni15  1  0.774205  0.155871  0.432439  1
  Ni  Ni16  1  0.155871  0.774205  0.432439  1
  Ni  Ni17  1  0.353059  0.619320  0.743336  1
  Ni  Ni18  1  0.505574  0.870035  0.562478  1
  Ni  Ni19  1  0.494426  0.129965  0.062478  1
  Ni  Ni20  1  0.129965  0.494426  0.062478  1
  Ni  Ni21  1  0.870035  0.505574  0.562478  1
  Ni  Ni22  1  0.289645  0.024864  0.724869  1
  Ni  Ni23  1  0.710355  0.975136  0.224869  1
  Ni  Ni24  1  0.975136  0.710355  0.224869  1
  Ni  Ni25  1  0.024864  0.289645  0.724869  1
  Ni  Ni26  1  0.040057  0.305468  0.264837  1
  Ni  Ni27  1  0.959943  0.694532  0.764837  1
  Ni  Ni28  1  0.694532  0.959943  0.764837  1
  Ni  Ni29  1  0.305468  0.040057  0.264837  1
  Ni  Ni30  1  0.277121  0.277121  0.899561  1
  Ni  Ni31  1  0.722879  0.722879  0.399561  1
  Ni  Ni32  1  0.929648  0.929648  0.584077  1
  Ni  Ni33  1  0.070352  0.070352  0.084077  1
  Ni  Ni34  1  0.844129  0.225795  0.932439  1
  Ni  Ni35  1  0.380680  0.646941  0.243336  1
  La  La36  1  0.332729  0.332729  0.499627  1
  La  La37  1  0.667271  0.667271  0.999627  1
