# generated using pymatgen
data_CeHfO4
_symmetry_space_group_name_H-M   'P 1'
_cell_length_a   5.24155010
_cell_length_b   6.57698742
_cell_length_c   6.57698742
_cell_angle_alpha   114.09372813
_cell_angle_beta   69.16979234
_cell_angle_gamma   69.16979234
_symmetry_Int_Tables_number   1
_chemical_formula_structural   CeHfO4
_chemical_formula_sum   'Ce2 Hf2 O8'
_cell_volume   156.62652870
_cell_formula_units_Z   2
loop_
 _symmetry_equiv_pos_site_id
 _symmetry_equiv_pos_as_xyz
  1  'x, y, z'
loop_
 _atom_site_type_symbol
 _atom_site_label
 _atom_site_symmetry_multiplicity
 _atom_site_fract_x
 _atom_site_fract_y
 _atom_site_fract_z
 _atom_site_occupancy
  Ce  Ce0  1  0.750000  0.135946  0.364054  1
  Ce  Ce1  1  0.250000  0.864054  0.635946  1
  Hf  Hf2  1  0.250000  0.403619  0.096381  1
  Hf  Hf3  1  0.750000  0.596381  0.903619  1
  O  O4  1  0.163409  0.115222  0.049162  1
  O  O5  1  0.336591  0.450838  0.384778  1
  O  O6  1  0.766707  0.716739  0.266696  1
  O  O7  1  0.733293  0.233304  0.783261  1
  O  O8  1  0.266707  0.766696  0.216739  1
  O  O9  1  0.233293  0.283261  0.733304  1
  O  O10  1  0.663409  0.549162  0.615222  1
  O  O11  1  0.836591  0.884778  0.950838  1
