# generated using pymatgen
data_La2Ni5B4
_symmetry_space_group_name_H-M   'P 1'
_cell_length_a   5.13167770
_cell_length_b   5.53779982
_cell_length_c   6.21499044
_cell_angle_alpha   70.57984732
_cell_angle_beta   65.61620851
_cell_angle_gamma   62.39768655
_symmetry_Int_Tables_number   1
_chemical_formula_structural   La2Ni5B4
_chemical_formula_sum   'La2 Ni5 B4'
_cell_volume   140.35716665
_cell_formula_units_Z   1
loop_
 _symmetry_equiv_pos_site_id
 _symmetry_equiv_pos_as_xyz
  1  'x, y, z'
loop_
 _atom_site_type_symbol
 _atom_site_label
 _atom_site_symmetry_multiplicity
 _atom_site_fract_x
 _atom_site_fract_y
 _atom_site_fract_z
 _atom_site_occupancy
  B  B0  1  0.597539  0.941008  0.863913  1
  B  B1  1  0.402461  0.058992  0.136087  1
  B  B2  1  0.222132  0.396505  0.159231  1
  B  B3  1  0.777868  0.603495  0.840769  1
  Ni  Ni4  1  0.328211  0.720557  0.125786  1
  Ni  Ni5  1  0.671789  0.279443  0.874214  1
  Ni  Ni6  1  0.000000  0.500000  0.500000  1
  Ni  Ni7  1  0.825446  0.720557  0.125786  1
  Ni  Ni8  1  0.174554  0.279443  0.874214  1
  La  La9  1  0.724809  0.197103  0.353279  1
  La  La10  1  0.275191  0.802897  0.646721  1
