# generated using pymatgen
data_La(PdO2)2
_symmetry_space_group_name_H-M   'P 1'
_cell_length_a   5.99836443
_cell_length_b   5.99836443
_cell_length_c   6.70778133
_cell_angle_alpha   116.55904646
_cell_angle_beta   116.55904647
_cell_angle_gamma   89.99999992
_symmetry_Int_Tables_number   1
_chemical_formula_structural   La(PdO2)2
_chemical_formula_sum   'La2 Pd4 O8'
_cell_volume   186.97385873
_cell_formula_units_Z   2
loop_
 _symmetry_equiv_pos_site_id
 _symmetry_equiv_pos_as_xyz
  1  'x, y, z'
loop_
 _atom_site_type_symbol
 _atom_site_label
 _atom_site_symmetry_multiplicity
 _atom_site_fract_x
 _atom_site_fract_y
 _atom_site_fract_z
 _atom_site_occupancy
  O  O0  1  0.280716  0.673908  0.152611  1
  O  O1  1  0.478703  0.780716  0.652611  1
  O  O2  1  0.173908  0.371896  0.652611  1
  O  O3  1  0.871896  0.978703  0.152611  1
  O  O4  1  0.719284  0.326092  0.847389  1
  O  O5  1  0.521297  0.219284  0.347389  1
  O  O6  1  0.128104  0.021297  0.847389  1
  O  O7  1  0.826092  0.628104  0.347389  1
  Pd  Pd8  1  0.500000  0.000000  0.000000  1
  Pd  Pd9  1  0.000000  0.000000  0.500000  1
  Pd  Pd10  1  0.500000  0.000000  0.500000  1
  Pd  Pd11  1  0.500000  0.500000  0.000000  1
  La  La12  1  0.125000  0.375000  0.250000  1
  La  La13  1  0.875000  0.625000  0.750000  1
