# generated using pymatgen
data_LaTa7O19
_symmetry_space_group_name_H-M   'P 1'
_cell_length_a   6.30073775
_cell_length_b   6.30073776
_cell_length_c   20.19604851
_cell_angle_alpha   90.00000000
_cell_angle_beta   90.00000000
_cell_angle_gamma   120.00000001
_symmetry_Int_Tables_number   1
_chemical_formula_structural   LaTa7O19
_chemical_formula_sum   'La2 Ta14 O38'
_cell_volume   694.35224630
_cell_formula_units_Z   2
loop_
 _symmetry_equiv_pos_site_id
 _symmetry_equiv_pos_as_xyz
  1  'x, y, z'
loop_
 _atom_site_type_symbol
 _atom_site_label
 _atom_site_symmetry_multiplicity
 _atom_site_fract_x
 _atom_site_fract_y
 _atom_site_fract_z
 _atom_site_occupancy
  O  O0  1  0.945771  0.568980  0.557195  1
  O  O1  1  0.431020  0.054229  0.442805  1
  O  O2  1  0.431020  0.376791  0.557195  1
  O  O3  1  0.623209  0.054229  0.557195  1
  O  O4  1  0.431020  0.376791  0.942805  1
  O  O5  1  0.623209  0.054229  0.942805  1
  O  O6  1  0.945771  0.568980  0.942805  1
  O  O7  1  0.623209  0.568980  0.057195  1
  O  O8  1  0.945771  0.376791  0.057195  1
  O  O9  1  0.945771  0.376791  0.442805  1
  O  O10  1  0.623209  0.568980  0.442805  1
  O  O11  1  0.431020  0.054229  0.057195  1
  O  O12  1  0.374459  0.414956  0.750000  1
  O  O13  1  0.585044  0.959503  0.750000  1
  O  O14  1  0.040497  0.625541  0.750000  1
  O  O15  1  0.040497  0.414956  0.250000  1
  O  O16  1  0.755032  0.999625  0.153407  1
  O  O17  1  0.244593  0.244968  0.346593  1
  O  O18  1  0.000375  0.755407  0.346593  1
  O  O19  1  0.000375  0.755407  0.153407  1
  O  O20  1  0.244593  0.244968  0.153407  1
  O  O21  1  0.000375  0.244968  0.846593  1
  O  O22  1  0.244593  0.999625  0.846593  1
  O  O23  1  0.755032  0.755407  0.846593  1
  O  O24  1  0.244593  0.999625  0.653407  1
  O  O25  1  0.755032  0.755407  0.653407  1
  O  O26  1  0.755032  0.999625  0.346593  1
  O  O27  1  0.000375  0.244968  0.653407  1
  O  O28  1  0.666667  0.333333  0.167442  1
  O  O29  1  0.666667  0.333333  0.332558  1
  O  O30  1  0.666667  0.333333  0.832558  1
  O  O31  1  0.666667  0.333333  0.667442  1
  O  O32  1  0.333333  0.666667  0.132831  1
  O  O33  1  0.333333  0.666667  0.367169  1
  O  O34  1  0.333333  0.666667  0.867169  1
  O  O35  1  0.333333  0.666667  0.632831  1
  O  O36  1  0.374459  0.959503  0.250000  1
  O  O37  1  0.585044  0.625541  0.250000  1
  La  La38  1  0.333333  0.666667  0.000000  1
  La  La39  1  0.333333  0.666667  0.500000  1
  Ta  Ta40  1  0.359058  0.357250  0.656069  1
  Ta  Ta41  1  0.642750  0.001808  0.656069  1
  Ta  Ta42  1  0.359058  0.357250  0.843931  1
  Ta  Ta43  1  0.642750  0.001808  0.843931  1
  Ta  Ta44  1  0.998192  0.640942  0.843931  1
  Ta  Ta45  1  0.642750  0.640942  0.156069  1
  Ta  Ta46  1  0.998192  0.357250  0.156069  1
  Ta  Ta47  1  0.998192  0.357250  0.343931  1
  Ta  Ta48  1  0.642750  0.640942  0.343931  1
  Ta  Ta49  1  0.359058  0.001808  0.156069  1
  Ta  Ta50  1  0.666667  0.333333  0.500000  1
  Ta  Ta51  1  0.666667  0.333333  0.000000  1
  Ta  Ta52  1  0.359058  0.001808  0.343931  1
  Ta  Ta53  1  0.998192  0.640942  0.656069  1
