# generated using pymatgen
data_CeHfO4
_symmetry_space_group_name_H-M   'P 1'
_cell_length_a   5.31249764
_cell_length_b   6.60674320
_cell_length_c   5.31249764
_cell_angle_alpha   66.29353032
_cell_angle_beta   90.00000000
_cell_angle_gamma   113.70646968
_symmetry_Int_Tables_number   1
_chemical_formula_structural   CeHfO4
_chemical_formula_sum   'Ce2 Hf2 O8'
_cell_volume   153.38614494
_cell_formula_units_Z   2
loop_
 _symmetry_equiv_pos_site_id
 _symmetry_equiv_pos_as_xyz
  1  'x, y, z'
loop_
 _atom_site_type_symbol
 _atom_site_label
 _atom_site_symmetry_multiplicity
 _atom_site_fract_x
 _atom_site_fract_y
 _atom_site_fract_z
 _atom_site_occupancy
  Ce  Ce0  1  0.875000  0.250000  0.375000  1
  Ce  Ce1  1  0.125000  0.750000  0.625000  1
  Hf  Hf2  1  0.625000  0.750000  0.125000  1
  Hf  Hf3  1  0.375000  0.250000  0.875000  1
  O  O4  1  0.063573  0.047779  0.220739  1
  O  O5  1  0.279261  0.547779  0.015794  1
  O  O6  1  0.768519  0.547779  0.436427  1
  O  O7  1  0.515794  0.952221  0.268519  1
  O  O8  1  0.484206  0.047779  0.731481  1
  O  O9  1  0.231481  0.452221  0.563573  1
  O  O10  1  0.720739  0.452221  0.984206  1
  O  O11  1  0.936427  0.952221  0.779261  1
