# generated using pymatgen
data_LaTa3O9
_symmetry_space_group_name_H-M   'P 1'
_cell_length_a   8.84288319
_cell_length_b   5.59569866
_cell_length_c   8.91021210
_cell_angle_alpha   108.30073971
_cell_angle_beta   78.55892946
_cell_angle_gamma   71.55491948
_symmetry_Int_Tables_number   1
_chemical_formula_structural   LaTa3O9
_chemical_formula_sum   'La2 Ta6 O18'
_cell_volume   374.77055873
_cell_formula_units_Z   2
loop_
 _symmetry_equiv_pos_site_id
 _symmetry_equiv_pos_as_xyz
  1  'x, y, z'
loop_
 _atom_site_type_symbol
 _atom_site_label
 _atom_site_symmetry_multiplicity
 _atom_site_fract_x
 _atom_site_fract_y
 _atom_site_fract_z
 _atom_site_occupancy
  La  La0  1  0.333418  0.333606  0.000629  1
  La  La1  1  0.666582  0.666394  0.999371  1
  Ta  Ta2  1  0.084168  0.331410  0.746990  1
  Ta  Ta3  1  0.239556  0.011643  0.262842  1
  Ta  Ta4  1  0.412530  0.664257  0.741043  1
  Ta  Ta5  1  0.587470  0.335743  0.258957  1
  Ta  Ta6  1  0.760444  0.988357  0.737158  1
  Ta  Ta7  1  0.915832  0.668590  0.253010  1
  O  O8  1  0.096566  0.328388  0.233936  1
  O  O9  1  0.167844  0.167092  0.502030  1
  O  O10  1  -0.000000  0.500000  0.000000  1
  O  O11  1  0.424335  0.151110  0.226540  1
  O  O12  1  0.096566  0.808983  0.233936  1
  O  O13  1  0.251997  0.497613  0.766975  1
  O  O14  1  0.748003  0.982635  0.233026  1
  O  O15  1  0.424335  0.651094  0.226540  1
  O  O16  1  0.251997  0.017365  0.766975  1
  O  O17  1  0.500000  0.500000  0.500000  1
  O  O18  1  0.575665  0.348906  0.773460  1
  O  O19  1  0.652187  0.173788  0.999764  1
  O  O20  1  0.347813  0.826212  0.000236  1
  O  O21  1  0.748003  0.502387  0.233026  1
  O  O22  1  0.903434  0.191017  0.766064  1
  O  O23  1  0.575665  0.848890  0.773460  1
  O  O24  1  0.903434  0.671612  0.766064  1
  O  O25  1  0.832156  0.832908  0.497970  1
