# generated using pymatgen
data_LaTi6O12
_symmetry_space_group_name_H-M   'P 1'
_cell_length_a   16.63254988
_cell_length_b   12.63300327
_cell_length_c   12.86008442
_cell_angle_alpha   33.20445047
_cell_angle_beta   21.85914993
_cell_angle_gamma   24.92848160
_symmetry_Int_Tables_number   1
_chemical_formula_structural   LaTi6O12
_chemical_formula_sum   'La2 Ti12 O24'
_cell_volume   423.84171606
_cell_formula_units_Z   2
loop_
 _symmetry_equiv_pos_site_id
 _symmetry_equiv_pos_as_xyz
  1  'x, y, z'
loop_
 _atom_site_type_symbol
 _atom_site_label
 _atom_site_symmetry_multiplicity
 _atom_site_fract_x
 _atom_site_fract_y
 _atom_site_fract_z
 _atom_site_occupancy
  La  La0  1  0.860985  0.501032  0.364521  1
  La  La1  1  0.472349  0.498968  0.635479  1
  Ti  Ti2  1  0.134918  0.947509  -0.029653  1
  Ti  Ti3  1  0.769485  0.062563  0.005616  1
  Ti  Ti4  1  0.158330  0.671358  0.414716  1
  Ti  Ti5  1  0.563848  -0.062563  -0.005616  1
  Ti  Ti6  1  0.748226  0.422869  0.844163  1
  Ti  Ti7  1  0.198416  0.052491  0.029653  1
  Ti  Ti8  1  -0.001181  -0.093515  0.638779  1
  Ti  Ti9  1  0.303542  0.341630  0.763572  1
  Ti  Ti10  1  0.029792  0.658370  0.236428  1
  Ti  Ti11  1  0.334514  0.093515  0.361221  1
  Ti  Ti12  1  0.585107  0.577131  0.155837  1
  Ti  Ti13  1  0.175003  0.328642  0.585284  1
  O  O14  1  0.497598  0.037494  0.731275  1
  O  O15  1  0.027910  0.714019  -0.132404  1
  O  O16  1  0.855813  0.639204  0.799324  1
  O  O17  1  0.077292  0.881044  0.227647  1
  O  O18  1  0.500707  0.985474  0.384070  1
  O  O19  1  0.275524  -0.068204  0.291915  1
  O  O20  1  0.883061  0.290575  0.937295  1
  O  O21  1  0.256041  0.118956  0.772353  1
  O  O22  1  0.343217  0.262030  0.921683  1
  O  O23  1  0.251503  0.561147  0.537310  1
  O  O24  1  0.477520  0.360797  0.200676  1
  O  O25  1  0.305423  0.285981  0.132404  1
  O  O26  1  0.575819  0.807644  0.216516  1
  O  O27  1  0.614903  0.385767  0.384744  1
  O  O28  1  0.835735  -0.037494  0.268725  1
  O  O29  1  0.984610  0.332740  0.146158  1
  O  O30  1  0.348723  0.667260  -0.146158  1
  O  O31  1  0.718430  0.614233  0.615256  1
  O  O32  1  0.757514  0.192356  0.783484  1
  O  O33  1  0.081831  0.438853  0.462690  1
  O  O34  1  -0.009883  0.737970  0.078317  1
  O  O35  1  0.450273  0.709425  0.062705  1
  O  O36  1  0.057810  0.068204  0.708085  1
  O  O37  1  0.832626  0.014526  0.615930  1
