# generated using pymatgen
data_LaTi6O12
_symmetry_space_group_name_H-M   'P 1'
_cell_length_a   8.46491500
_cell_length_b   8.27150001
_cell_length_c   8.46491500
_cell_angle_alpha   74.87999550
_cell_angle_beta   64.12938376
_cell_angle_gamma   108.42108729
_symmetry_Int_Tables_number   1
_chemical_formula_structural   LaTi6O12
_chemical_formula_sum   'La2 Ti12 O24'
_cell_volume   447.38777018
_cell_formula_units_Z   2
loop_
 _symmetry_equiv_pos_site_id
 _symmetry_equiv_pos_as_xyz
  1  'x, y, z'
loop_
 _atom_site_type_symbol
 _atom_site_label
 _atom_site_symmetry_multiplicity
 _atom_site_fract_x
 _atom_site_fract_y
 _atom_site_fract_z
 _atom_site_occupancy
  La  La0  1  0.601982  0.000000  0.398018  1
  La  La1  1  0.064685  0.000000  0.935315  1
  Ti  Ti2  1  0.324339  0.181384  0.146905  1
  Ti  Ti3  1  0.182795  0.520285  0.995844  1
  Ti  Ti4  1  0.483871  0.479715  0.337489  1
  Ti  Ti5  1  0.145989  0.480567  0.668995  1
  Ti  Ti6  1  0.342328  0.818616  0.186428  1
  Ti  Ti7  1  0.012807  0.824735  0.521405  1
  Ti  Ti8  1  0.994956  0.181384  0.476289  1
  Ti  Ti9  1  0.653860  0.175265  0.811928  1
  Ti  Ti10  1  0.520678  0.519433  0.664339  1
  Ti  Ti11  1  0.850438  0.519433  0.334578  1
  Ti  Ti12  1  0.816229  0.480567  0.998755  1
  Ti  Ti13  1  0.671711  0.818616  0.857044  1
  O  O14  1  0.017396  0.031001  0.319729  1
  O  O15  1  0.022834  0.667646  0.028546  1
  O  O16  1  0.290901  0.307816  0.316418  1
  O  O17  1  0.375766  0.692184  0.016915  1
  O  O18  1  0.045454  0.697171  0.348973  1
  O  O19  1  0.643833  0.332354  0.304787  1
  O  O20  1  0.303808  0.332354  0.644812  1
  O  O21  1  0.683918  0.637493  0.046189  1
  O  O22  1  0.350349  0.637493  0.379757  1
  O  O23  1  0.009464  0.630909  0.711889  1
  O  O24  1  0.684140  0.029830  0.645577  1
  O  O25  1  0.342074  0.029830  0.987643  1
  O  O26  1  0.649270  0.968999  0.013604  1
  O  O27  1  0.324593  0.970170  0.345691  1
  O  O28  1  0.316318  0.362507  0.953576  1
  O  O29  1  0.982748  0.362507  0.287145  1
  O  O30  1  0.657202  0.369091  0.621445  1
  O  O31  1  0.362859  0.667646  0.688521  1
  O  O32  1  0.691953  0.663766  0.361520  1
  O  O33  1  0.953856  0.302829  0.651718  1
  O  O34  1  0.621212  0.302829  0.984360  1
  O  O35  1  0.712811  0.697171  0.681616  1
  O  O36  1  0.974714  0.336234  0.971813  1
  O  O37  1  0.982527  0.970170  0.687756  1
