# generated using pymatgen
data_La2Ti3(AgO5)2
_symmetry_space_group_name_H-M   'P 1'
_cell_length_a   3.86394725
_cell_length_b   3.86394725
_cell_length_c   14.88329316
_cell_angle_alpha   97.45850952
_cell_angle_beta   97.45850953
_cell_angle_gamma   90.00000009
_symmetry_Int_Tables_number   1
_chemical_formula_structural   La2Ti3(AgO5)2
_chemical_formula_sum   'La2 Ti3 Ag2 O10'
_cell_volume   218.43253538
_cell_formula_units_Z   1
loop_
 _symmetry_equiv_pos_site_id
 _symmetry_equiv_pos_as_xyz
  1  'x, y, z'
loop_
 _atom_site_type_symbol
 _atom_site_label
 _atom_site_symmetry_multiplicity
 _atom_site_fract_x
 _atom_site_fract_y
 _atom_site_fract_z
 _atom_site_occupancy
  O  O0  1  0.793361  0.793361  0.586722  1
  O  O1  1  0.206639  0.206639  0.413278  1
  O  O2  1  0.869276  0.369276  0.738552  1
  O  O3  1  0.369276  0.869276  0.738552  1
  O  O4  1  0.130724  0.630724  0.261448  1
  O  O5  1  0.630724  0.130724  0.261448  1
  O  O6  1  0.933427  0.933427  0.866855  1
  O  O7  1  0.500000  0.000000  0.000000  1
  O  O8  1  0.000000  0.500000  0.000000  1
  O  O9  1  0.066573  0.066573  0.133145  1
  Ti  Ti10  1  0.854106  0.854106  0.708213  1
  Ti  Ti11  1  0.145894  0.145894  0.291787  1
  Ti  Ti12  1  0.000000  0.000000  0.000000  1
  Ag  Ag13  1  0.285369  0.285369  0.570738  1
  Ag  Ag14  1  0.714631  0.714631  0.429262  1
  La  La15  1  0.425749  0.425749  0.851497  1
  La  La16  1  0.574251  0.574251  0.148503  1
