# generated using pymatgen
data_La2(WO3)19
_symmetry_space_group_name_H-M   'P 1'
_cell_length_a   73.85175060
_cell_length_b   16.02637890
_cell_length_c   8.69151964
_cell_angle_alpha   29.80175496
_cell_angle_beta   26.56001264
_cell_angle_gamma   14.03271182
_symmetry_Int_Tables_number   1
_chemical_formula_structural   La2(WO3)19
_chemical_formula_sum   'La2 W19 O57'
_cell_volume   1115.31863991
_cell_formula_units_Z   1
loop_
 _symmetry_equiv_pos_site_id
 _symmetry_equiv_pos_as_xyz
  1  'x, y, z'
loop_
 _atom_site_type_symbol
 _atom_site_label
 _atom_site_symmetry_multiplicity
 _atom_site_fract_x
 _atom_site_fract_y
 _atom_site_fract_z
 _atom_site_occupancy
  La  La0  1  0.473056  0.002028  0.000740  1
  La  La1  1  0.947996  0.997971  0.999258  1
  W  W2  1  0.028660  0.488175  0.505910  1
  W  W3  1  0.081799  0.492131  0.487362  1
  W  W4  1  0.134573  0.495569  0.488204  1
  W  W5  1  0.184525  0.500252  0.499481  1
  W  W6  1  0.236521  0.499770  0.500519  1
  W  W7  1  0.286484  0.504419  0.511797  1
  W  W8  1  0.339257  0.507860  0.512639  1
  W  W9  1  0.392388  0.511852  0.494095  1
  W  W10  1  0.445605  0.512198  0.495600  1
  W  W11  1  0.501754  0.487467  0.505410  1
  W  W12  1  0.553856  0.492417  0.507902  1
  W  W13  1  0.607544  0.494209  0.488021  1
  W  W14  1  0.660120  0.495752  0.493530  1
  W  W15  1  0.710527  0.500002  0.499997  1
  W  W16  1  0.760929  0.504257  0.506498  1
  W  W17  1  0.813498  0.505840  0.512005  1
  W  W18  1  0.867193  0.507600  0.492112  1
  W  W19  1  0.919302  0.512522  0.494586  1
  W  W20  1  0.975444  0.487819  0.504413  1
  O  O21  1  0.024236  0.513548  0.999450  1
  O  O22  1  0.998774  0.512485  0.486782  1
  O  O23  1  0.075297  0.513872  0.000100  1
  O  O24  1  0.052902  0.499166  0.499721  1
  O  O25  1  0.131722  0.499005  0.000199  1
  O  O26  1  0.100962  0.513940  0.513481  1
  O  O27  1  0.184416  0.499120  0.000264  1
  O  O28  1  0.023951  0.001059  0.513298  1
  O  O29  1  0.158146  0.499588  0.498955  1
  O  O30  1  0.078666  0.000646  0.501012  1
  O  O31  1  0.236643  0.500854  -0.000272  1
  O  O32  1  0.210528  0.499995  0.499994  1
  O  O33  1  0.289336  0.500976  -0.000211  1
  O  O34  1  0.131321  0.000854  0.500935  1
  O  O35  1  0.262915  0.500379  0.501028  1
  O  O36  1  0.345760  0.486114  -0.000104  1
  O  O37  1  0.184355  0.999389  0.499493  1
  O  O38  1  0.320100  0.486027  0.486492  1
  O  O39  1  0.396821  0.486426  0.000546  1
  O  O40  1  0.236702  0.000591  0.500487  1
  O  O41  1  0.368160  0.500794  0.500268  1
  O  O42  1  0.289731  0.999148  0.499068  1
  O  O43  1  0.447373  0.499678  0.999924  1
  O  O44  1  0.422284  0.487485  0.513229  1
  O  O45  1  0.499956  0.500333  0.000537  1
  O  O46  1  0.342386  -0.000647  0.498989  1
  O  O47  1  0.473677  0.499933  0.500200  1
  O  O48  1  0.550541  0.513269  -0.000000  1
  O  O49  1  0.397109  0.998924  0.486672  1
  O  O50  1  0.525089  0.512661  0.486623  1
  O  O51  1  0.448080  0.999508  0.487404  1
  O  O52  1  0.601798  0.512987  0.000621  1
  O  O53  1  0.579234  0.498949  0.499595  1
  O  O54  1  0.499206  0.000758  0.513151  1
  O  O55  1  0.658050  0.499080  -0.000054  1
  O  O56  1  0.627478  0.512904  0.513649  1
  O  O57  1  0.710522  0.500015  0.000010  1
  O  O58  1  0.550377  0.000808  0.512879  1
  O  O59  1  0.684369  0.499533  0.499253  1
  O  O60  1  0.762999  0.500937  0.000058  1
  O  O61  1  0.605065  0.000401  0.500766  1
  O  O62  1  0.736677  0.500489  0.500760  1
  O  O63  1  0.819250  0.487019  0.999390  1
  O  O64  1  0.657766  0.999589  0.501826  1
  O  O65  1  0.793571  0.487111  0.486360  1
  O  O66  1  0.870510  0.486739  0.000001  1
  O  O67  1  0.710522  0.000015  0.500009  1
  O  O68  1  0.841809  0.501089  0.500417  1
  O  O69  1  0.921095  0.499663  0.999471  1
  O  O70  1  0.763284  0.000426  0.498177  1
  O  O71  1  0.895963  0.487345  0.513364  1
  O  O72  1  0.973683  0.500310  0.000071  1
  O  O73  1  0.815988  -0.000402  0.499220  1
  O  O74  1  0.947376  0.500070  0.499784  1
  O  O75  1  0.870671  0.999199  0.487129  1
  O  O76  1  0.921845  0.999248  0.486866  1
  O  O77  1  0.972973  0.000485  0.512586  1
