# generated using pymatgen
data_CeHg3
_symmetry_space_group_name_H-M   'P 1'
_cell_length_a   5.06123614
_cell_length_b   6.85332773
_cell_length_c   6.85332773
_cell_angle_alpha   119.66980074
_cell_angle_beta   90.00000000
_cell_angle_gamma   90.00000000
_symmetry_Int_Tables_number   1
_chemical_formula_structural   CeHg3
_chemical_formula_sum   'Ce2 Hg6'
_cell_volume   206.55022379
_cell_formula_units_Z   2
loop_
 _symmetry_equiv_pos_site_id
 _symmetry_equiv_pos_as_xyz
  1  'x, y, z'
loop_
 _atom_site_type_symbol
 _atom_site_label
 _atom_site_symmetry_multiplicity
 _atom_site_fract_x
 _atom_site_fract_y
 _atom_site_fract_z
 _atom_site_occupancy
  Ce  Ce0  1  0.750000  0.666406  0.333594  1
  Ce  Ce1  1  0.250000  0.333594  0.666406  1
  Hg  Hg2  1  0.750000  0.164009  0.328650  1
  Hg  Hg3  1  0.750000  0.164434  0.835566  1
  Hg  Hg4  1  0.750000  0.671350  0.835991  1
  Hg  Hg5  1  0.250000  0.835991  0.671350  1
  Hg  Hg6  1  0.250000  0.835566  0.164434  1
  Hg  Hg7  1  0.250000  0.328650  0.164009  1
