# generated using pymatgen
data_LaZn11
_symmetry_space_group_name_H-M   'P 1'
_cell_length_a   6.88580852
_cell_length_b   8.31294701
_cell_length_c   8.31293977
_cell_angle_alpha   80.11814605
_cell_angle_beta   65.53329398
_cell_angle_gamma   65.53302043
_symmetry_Int_Tables_number   1
_chemical_formula_structural   LaZn11
_chemical_formula_sum   'La2 Zn22'
_cell_volume   394.22058707
_cell_formula_units_Z   2
loop_
 _symmetry_equiv_pos_site_id
 _symmetry_equiv_pos_as_xyz
  1  'x, y, z'
loop_
 _atom_site_type_symbol
 _atom_site_label
 _atom_site_symmetry_multiplicity
 _atom_site_fract_x
 _atom_site_fract_y
 _atom_site_fract_z
 _atom_site_occupancy
  La  La0  1  0.374997  0.249999  0.749999  1
  La  La1  1  0.625003  0.750001  0.250001  1
  Zn  Zn2  1  0.722071  0.834320  0.577847  1
  Zn  Zn3  1  -0.000000  -0.000000  0.000000  1
  Zn  Zn4  1  0.200112  0.077831  0.165722  1
  Zn  Zn5  1  0.134233  0.422150  0.165693  1
  Zn  Zn6  1  0.200110  0.665723  0.577832  1
  Zn  Zn7  1  0.865767  0.577850  0.834307  1
  Zn  Zn8  1  0.134233  0.665693  0.922150  1
  Zn  Zn9  1  0.124933  0.749990  0.249991  1
  Zn  Zn10  1  0.865767  0.334307  0.077850  1
  Zn  Zn11  1  0.875067  0.250010  0.750009  1
  Zn  Zn12  1  0.556337  0.577836  0.665727  1
  Zn  Zn13  1  0.500000  0.500000  0.000000  1
  Zn  Zn14  1  0.277929  0.165680  0.422153  1
  Zn  Zn15  1  0.799890  0.334277  0.422168  1
  Zn  Zn16  1  0.722070  0.077848  0.334321  1
  Zn  Zn17  1  0.443663  0.422164  0.334273  1
  Zn  Zn18  1  0.556338  0.165726  0.077835  1
  Zn  Zn19  1  0.277930  0.922152  0.665679  1
  Zn  Zn20  1  0.799888  0.922169  0.834278  1
  Zn  Zn21  1  0.443662  0.834274  0.922165  1
  Zn  Zn22  1  -0.000000  -0.000000  0.500000  1
  Zn  Zn23  1  -0.000000  0.500000  0.500000  1
