# generated using pymatgen
data_La3(B3Ru4)2
_symmetry_space_group_name_H-M   'P 1'
_cell_length_a   5.58773321
_cell_length_b   5.65958438
_cell_length_c   9.24147954
_cell_angle_alpha   81.41711306
_cell_angle_beta   72.40311258
_cell_angle_gamma   60.41908209
_symmetry_Int_Tables_number   1
_chemical_formula_structural   La3(B3Ru4)2
_chemical_formula_sum   'La3 B6 Ru8'
_cell_volume   242.26917583
_cell_formula_units_Z   1
loop_
 _symmetry_equiv_pos_site_id
 _symmetry_equiv_pos_as_xyz
  1  'x, y, z'
loop_
 _atom_site_type_symbol
 _atom_site_label
 _atom_site_symmetry_multiplicity
 _atom_site_fract_x
 _atom_site_fract_y
 _atom_site_fract_z
 _atom_site_occupancy
  B  B0  1  0.330839  0.338321  0.000000  1
  B  B1  1  0.669161  0.661679  0.000000  1
  B  B2  1  0.835006  0.671928  0.658061  1
  B  B3  1  0.506934  0.328072  0.658061  1
  B  B4  1  0.164994  0.328072  0.341939  1
  B  B5  1  0.493066  0.671928  0.341939  1
  Ru  Ru6  1  0.085814  0.500000  0.828372  1
  Ru  Ru7  1  0.586820  0.000000  0.826360  1
  Ru  Ru8  1  0.413180  0.000000  0.173640  1
  Ru  Ru9  1  0.750000  0.500000  0.500000  1
  Ru  Ru10  1  0.250000  0.500000  0.500000  1
  Ru  Ru11  1  0.914186  0.500000  0.171628  1
  Ru  Ru12  1  0.414186  0.500000  0.171628  1
  Ru  Ru13  1  0.585814  0.500000  0.828372  1
  La  La14  1  0.000000  0.000000  0.000000  1
  La  La15  1  0.182010  0.000000  0.635981  1
  La  La16  1  0.817990  0.000000  0.364019  1
