# generated using pymatgen
data_La3(CrN3)2
_symmetry_space_group_name_H-M   'P 1'
_cell_length_a   3.85540995
_cell_length_b   3.85540943
_cell_length_c   10.37847739
_cell_angle_alpha   100.70431910
_cell_angle_beta   100.70431788
_cell_angle_gamma   89.99999564
_symmetry_Int_Tables_number   1
_chemical_formula_structural   La3(CrN3)2
_chemical_formula_sum   'La3 Cr2 N6'
_cell_volume   148.85030924
_cell_formula_units_Z   1
loop_
 _symmetry_equiv_pos_site_id
 _symmetry_equiv_pos_as_xyz
  1  'x, y, z'
loop_
 _atom_site_type_symbol
 _atom_site_label
 _atom_site_symmetry_multiplicity
 _atom_site_fract_x
 _atom_site_fract_y
 _atom_site_fract_z
 _atom_site_occupancy
  La  La0  1  0.178976  0.178976  0.357952  1
  La  La1  1  0.821024  0.821024  0.642048  1
  La  La2  1  0.000000  0.000000  0.000000  1
  Cr  Cr3  1  0.602257  0.602257  0.204514  1
  Cr  Cr4  1  0.397743  0.397743  0.795486  1
  N  N5  1  0.693512  0.693512  0.387023  1
  N  N6  1  0.086825  0.586825  0.173650  1
  N  N7  1  0.913175  0.413175  0.826350  1
  N  N8  1  0.586825  0.086825  0.173650  1
  N  N9  1  0.413175  0.913175  0.826350  1
  N  N10  1  0.306488  0.306488  0.612977  1
