# generated using pymatgen
data_La3Nb8O24
_symmetry_space_group_name_H-M   'P 1'
_cell_length_a   7.96664726
_cell_length_b   8.91108913
_cell_length_c   8.98714262
_cell_angle_alpha   66.63137222
_cell_angle_beta   90.00000000
_cell_angle_gamma   116.55184942
_symmetry_Int_Tables_number   1
_chemical_formula_structural   La3Nb8O24
_chemical_formula_sum   'La3 Nb8 O24'
_cell_volume   511.54651272
_cell_formula_units_Z   1
loop_
 _symmetry_equiv_pos_site_id
 _symmetry_equiv_pos_as_xyz
  1  'x, y, z'
loop_
 _atom_site_type_symbol
 _atom_site_label
 _atom_site_symmetry_multiplicity
 _atom_site_fract_x
 _atom_site_fract_y
 _atom_site_fract_z
 _atom_site_occupancy
  La  La0  1  0.500000  0.000000  0.000000  1
  La  La1  1  0.250679  0.501358  0.000070  1
  La  La2  1  0.749321  0.498642  0.999930  1
  Nb  Nb3  1  0.812180  0.117107  0.259058  1
  Nb  Nb4  1  0.304927  0.117107  0.259058  1
  Nb  Nb5  1  0.941795  0.376121  0.740959  1
  Nb  Nb6  1  0.434327  0.376121  0.740959  1
  Nb  Nb7  1  0.058205  0.623879  0.259041  1
  Nb  Nb8  1  0.565673  0.623879  0.259041  1
  Nb  Nb9  1  0.187820  0.882893  0.740942  1
  Nb  Nb10  1  0.695073  0.882893  0.740942  1
  O  O11  1  0.072658  0.145315  0.229363  1
  O  O12  1  0.570442  0.140884  0.222230  1
  O  O13  1  0.870315  0.260288  0.000014  1
  O  O14  1  0.250937  0.000000  0.500000  1
  O  O15  1  0.389973  0.260288  0.000014  1
  O  O16  1  0.749063  0.000000  0.500000  1
  O  O17  1  0.796086  0.115673  0.768600  1
  O  O18  1  0.319587  0.115673  0.768600  1
  O  O19  1  0.443565  0.387352  0.225380  1
  O  O20  1  0.943786  0.387352  0.225380  1
  O  O21  1  0.812691  0.625382  0.229371  1
  O  O22  1  0.187309  0.374618  0.770629  1
  O  O23  1  0.681455  0.362911  0.777821  1
  O  O24  1  0.000000  0.500000  0.500000  1
  O  O25  1  0.318545  0.637089  0.222179  1
  O  O26  1  0.129685  0.739712  0.999986  1
  O  O27  1  0.500000  0.500000  0.500000  1
  O  O28  1  0.610027  0.739712  0.999986  1
  O  O29  1  0.556435  0.612648  0.774620  1
  O  O30  1  0.056214  0.612648  0.774620  1
  O  O31  1  0.203914  0.884327  0.231400  1
  O  O32  1  0.680413  0.884327  0.231400  1
  O  O33  1  0.429558  0.859116  0.777770  1
  O  O34  1  0.927342  0.854685  0.770637  1
