# generated using pymatgen
data_LaNi3
_symmetry_space_group_name_H-M   'P 1'
_cell_length_a   8.82774035
_cell_length_b   8.82774035
_cell_length_c   8.82774035
_cell_angle_alpha   33.18109592
_cell_angle_beta   33.18109589
_cell_angle_gamma   33.18109594
_symmetry_Int_Tables_number   1
_chemical_formula_structural   LaNi3
_chemical_formula_sum   'La3 Ni9'
_cell_volume   183.42339016
_cell_formula_units_Z   3
loop_
 _symmetry_equiv_pos_site_id
 _symmetry_equiv_pos_as_xyz
  1  'x, y, z'
loop_
 _atom_site_type_symbol
 _atom_site_label
 _atom_site_symmetry_multiplicity
 _atom_site_fract_x
 _atom_site_fract_y
 _atom_site_fract_z
 _atom_site_occupancy
  Ni  Ni0  1  0.419865  0.419865  0.917991  1
  Ni  Ni1  1  0.419865  0.917991  0.419865  1
  Ni  Ni2  1  0.917991  0.419865  0.419865  1
  Ni  Ni3  1  0.500000  0.500000  0.500000  1
  Ni  Ni4  1  0.332404  0.332404  0.332404  1
  Ni  Ni5  1  0.667596  0.667596  0.667596  1
  Ni  Ni6  1  0.580135  0.082009  0.580135  1
  Ni  Ni7  1  0.580135  0.580135  0.082009  1
  Ni  Ni8  1  0.082009  0.580135  0.580135  1
  La  La9  1  0.861863  0.861863  0.861863  1
  La  La10  1  0.138137  0.138137  0.138137  1
  La  La11  1  0.000000  0.000000  0.000000  1
