# generated using pymatgen
data_La2CoO4
_symmetry_space_group_name_H-M   'P 1'
_cell_length_a   5.49734985
_cell_length_b   5.75486978
_cell_length_c   6.84778664
_cell_angle_alpha   90.00000000
_cell_angle_beta   113.66548527
_cell_angle_gamma   90.00000000
_symmetry_Int_Tables_number   1
_chemical_formula_structural   La2CoO4
_chemical_formula_sum   'La4 Co2 O8'
_cell_volume   198.42176967
_cell_formula_units_Z   2
loop_
 _symmetry_equiv_pos_site_id
 _symmetry_equiv_pos_as_xyz
  1  'x, y, z'
loop_
 _atom_site_type_symbol
 _atom_site_label
 _atom_site_symmetry_multiplicity
 _atom_site_fract_x
 _atom_site_fract_y
 _atom_site_fract_z
 _atom_site_occupancy
  O  O0  1  0.317828  0.573273  0.635656  1
  O  O1  1  0.682172  0.426727  0.364344  1
  O  O2  1  0.182172  0.073273  0.364344  1
  O  O3  1  0.817828  0.926727  0.635656  1
  O  O4  1  0.730023  0.250000  0.960046  1
  O  O5  1  0.769977  0.750000  0.039954  1
  O  O6  1  0.230023  0.250000  0.960046  1
  O  O7  1  0.269977  0.750000  0.039954  1
  Co  Co8  1  0.500000  0.500000  0.000000  1
  Co  Co9  1  0.000000  0.000000  0.000000  1
  La  La10  1  0.137987  0.482014  0.275974  1
  La  La11  1  0.862013  0.517986  0.724026  1
  La  La12  1  0.362013  0.982014  0.724026  1
  La  La13  1  0.637987  0.017986  0.275974  1
