# generated using pymatgen
data_La2CoO4
_symmetry_space_group_name_H-M   'P 1'
_cell_length_a   5.54148157
_cell_length_b   6.90997954
_cell_length_c   6.90997954
_cell_angle_alpha   47.19585608
_cell_angle_beta   90.00000000
_cell_angle_gamma   90.00000000
_symmetry_Int_Tables_number   1
_chemical_formula_structural   La2CoO4
_chemical_formula_sum   'La4 Co2 O8'
_cell_volume   194.12725972
_cell_formula_units_Z   2
loop_
 _symmetry_equiv_pos_site_id
 _symmetry_equiv_pos_as_xyz
  1  'x, y, z'
loop_
 _atom_site_type_symbol
 _atom_site_label
 _atom_site_symmetry_multiplicity
 _atom_site_fract_x
 _atom_site_fract_y
 _atom_site_fract_z
 _atom_site_occupancy
  La  La0  1  0.498801  0.137731  0.137731  1
  La  La1  1  0.501199  0.862269  0.862269  1
  La  La2  1  -0.001199  0.362269  0.362269  1
  La  La3  1  0.001199  0.637731  0.637731  1
  Co  Co4  1  0.500000  0.500000  0.500000  1
  Co  Co5  1  0.000000  -0.000000  -0.000000  1
  O  O6  1  0.750000  0.246863  0.746863  1
  O  O7  1  0.250000  0.253137  0.753137  1
  O  O8  1  0.250000  0.753137  0.253137  1
  O  O9  1  0.750000  0.746863  0.246863  1
  O  O10  1  0.495500  0.318403  0.318403  1
  O  O11  1  0.504500  0.681597  0.681597  1
  O  O12  1  0.995500  0.181597  0.181597  1
  O  O13  1  0.004500  0.818403  0.818403  1
