# generated using pymatgen
data_La4Co3O10
_symmetry_space_group_name_H-M   'P 1'
_cell_length_a   3.87432459
_cell_length_b   3.88040086
_cell_length_c   28.29071944
_cell_angle_alpha   89.82310627
_cell_angle_beta   90.16344175
_cell_angle_gamma   90.11870779
_symmetry_Int_Tables_number   1
_chemical_formula_structural   La4Co3O10
_chemical_formula_sum   'La8 Co6 O20'
_cell_volume   425.31610321
_cell_formula_units_Z   2
loop_
 _symmetry_equiv_pos_site_id
 _symmetry_equiv_pos_as_xyz
  1  'x, y, z'
loop_
 _atom_site_type_symbol
 _atom_site_label
 _atom_site_symmetry_multiplicity
 _atom_site_fract_x
 _atom_site_fract_y
 _atom_site_fract_z
 _atom_site_occupancy
  La  La0  1  0.503560  0.496025  0.065989  1
  La  La1  1  0.998812  0.001684  0.433449  1
  La  La2  1  0.001996  0.998221  0.299778  1
  La  La3  1  0.496440  0.503975  0.934011  1
  La  La4  1  0.502757  0.496366  0.801471  1
  La  La5  1  0.998004  0.001779  0.700222  1
  La  La6  1  0.497243  0.503634  0.198529  1
  La  La7  1  0.001188  0.998316  0.566551  1
  Co  Co8  1  0.500632  0.499314  0.640215  1
  Co  Co9  1  0.499368  0.500686  0.359785  1
  Co  Co10  1  -0.000000  -0.000000  -0.000000  1
  Co  Co11  1  0.999285  0.001158  0.860752  1
  Co  Co12  1  0.000715  0.998842  0.139248  1
  Co  Co13  1  0.500000  0.500000  0.500000  1
  O  O14  1  0.500672  0.001930  0.138826  1
  O  O15  1  0.001619  0.998131  0.067473  1
  O  O16  1  0.000313  0.500982  0.640613  1
  O  O17  1  0.998368  0.499253  0.138773  1
  O  O18  1  0.499328  0.998070  0.861174  1
  O  O19  1  0.001632  0.500747  0.861227  1
  O  O20  1  0.998381  0.001869  0.932527  1
  O  O21  1  0.500775  0.499348  0.719551  1
  O  O22  1  0.498873  0.999694  0.640706  1
  O  O23  1  0.999687  0.499018  0.359387  1
  O  O24  1  0.999212  0.000812  0.782768  1
  O  O25  1  0.000788  0.999188  0.217232  1
  O  O26  1  0.500000  -0.000000  -0.000000  1
  O  O27  1  0.500912  0.498898  0.567564  1
  O  O28  1  0.501127  0.000306  0.359294  1
  O  O29  1  0.499088  0.501102  0.432436  1
  O  O30  1  0.499225  0.500652  0.280449  1
  O  O31  1  -0.000000  0.500000  0.500000  1
  O  O32  1  0.500000  -0.000000  0.500000  1
  O  O33  1  -0.000000  0.500000  -0.000000  1
