# generated using pymatgen
data_La2CrO6
_symmetry_space_group_name_H-M   'P 1'
_cell_length_a   4.43822209
_cell_length_b   7.60300019
_cell_length_c   8.51446998
_cell_angle_alpha   106.55476826
_cell_angle_beta   90.00000000
_cell_angle_gamma   106.97012758
_symmetry_Int_Tables_number   1
_chemical_formula_structural   La2CrO6
_chemical_formula_sum   'La4 Cr2 O12'
_cell_volume   262.32323451
_cell_formula_units_Z   2
loop_
 _symmetry_equiv_pos_site_id
 _symmetry_equiv_pos_as_xyz
  1  'x, y, z'
loop_
 _atom_site_type_symbol
 _atom_site_label
 _atom_site_symmetry_multiplicity
 _atom_site_fract_x
 _atom_site_fract_y
 _atom_site_fract_z
 _atom_site_occupancy
  La  La0  1  0.676680  0.341004  0.085074  1
  La  La1  1  0.335676  0.658996  0.414926  1
  La  La2  1  0.664324  0.341004  0.585074  1
  La  La3  1  0.323320  0.658996  0.914926  1
  Cr  Cr4  1  0.956451  0.000000  0.250000  1
  Cr  Cr5  1  0.043549  0.000000  0.750000  1
  O  O6  1  0.734810  0.512054  0.877755  1
  O  O7  1  0.267475  0.002102  0.908302  1
  O  O8  1  0.265506  0.197602  0.298651  1
  O  O9  1  0.734494  0.802398  0.701349  1
  O  O10  1  0.222756  0.487946  0.622245  1
  O  O11  1  0.265372  0.997898  0.591698  1
  O  O12  1  0.777244  0.512054  0.377755  1
  O  O13  1  0.732525  0.997898  0.091698  1
  O  O14  1  0.265190  0.487946  0.122245  1
  O  O15  1  0.734628  0.002102  0.408302  1
  O  O16  1  0.932096  0.197602  0.798651  1
  O  O17  1  0.067904  0.802398  0.201349  1
