# generated using pymatgen
data_LaCrO4
_symmetry_space_group_name_H-M   'P 1'
_cell_length_a   6.74985955
_cell_length_b   7.14658565
_cell_length_c   7.29032339
_cell_angle_alpha   90.00000000
_cell_angle_beta   90.00000000
_cell_angle_gamma   105.56313706
_symmetry_Int_Tables_number   1
_chemical_formula_structural   LaCrO4
_chemical_formula_sum   'La4 Cr4 O16'
_cell_volume   338.77990834
_cell_formula_units_Z   4
loop_
 _symmetry_equiv_pos_site_id
 _symmetry_equiv_pos_as_xyz
  1  'x, y, z'
loop_
 _atom_site_type_symbol
 _atom_site_label
 _atom_site_symmetry_multiplicity
 _atom_site_fract_x
 _atom_site_fract_y
 _atom_site_fract_z
 _atom_site_occupancy
  O  O0  1  0.505140  0.606899  0.160036  1
  O  O1  1  0.994860  0.893101  0.660036  1
  O  O2  1  0.494860  0.393101  0.839964  1
  O  O3  1  0.005140  0.106899  0.339964  1
  O  O4  1  0.273868  0.880815  0.291826  1
  O  O5  1  0.226132  0.619185  0.791826  1
  O  O6  1  0.726132  0.119185  0.708174  1
  O  O7  1  0.773868  0.380815  0.208174  1
  O  O8  1  0.078236  0.253369  0.997857  1
  O  O9  1  0.421764  0.246631  0.497857  1
  O  O10  1  0.921764  0.746631  0.002143  1
  O  O11  1  0.578236  0.753369  0.502143  1
  O  O12  1  0.669466  0.016234  0.111235  1
  O  O13  1  0.830534  0.483766  0.611235  1
  O  O14  1  0.330534  0.983766  0.888765  1
  O  O15  1  0.169466  0.516234  0.388765  1
  Cr  Cr16  1  0.387455  0.697061  0.336036  1
  Cr  Cr17  1  0.112545  0.802939  0.836036  1
  Cr  Cr18  1  0.612545  0.302939  0.663964  1
  Cr  Cr19  1  0.887455  0.197061  0.163964  1
  La  La20  1  0.900613  0.717199  0.344946  1
  La  La21  1  0.599387  0.782801  0.844946  1
  La  La22  1  0.099387  0.282801  0.655054  1
  La  La23  1  0.400613  0.217199  0.155054  1
