# generated using pymatgen
data_LaCu6
_symmetry_space_group_name_H-M   'P 1'
_cell_length_a   5.10746503
_cell_length_b   8.16384013
_cell_length_c   10.21730207
_cell_angle_alpha   90.00000000
_cell_angle_beta   90.00000000
_cell_angle_gamma   92.04605104
_symmetry_Int_Tables_number   1
_chemical_formula_structural   LaCu6
_chemical_formula_sum   'La4 Cu24'
_cell_volume   425.75441026
_cell_formula_units_Z   4
loop_
 _symmetry_equiv_pos_site_id
 _symmetry_equiv_pos_as_xyz
  1  'x, y, z'
loop_
 _atom_site_type_symbol
 _atom_site_label
 _atom_site_symmetry_multiplicity
 _atom_site_fract_x
 _atom_site_fract_y
 _atom_site_fract_z
 _atom_site_occupancy
  Cu  Cu0  1  0.993076  0.560439  0.811734  1
  Cu  Cu1  1  0.006924  0.939561  0.311734  1
  Cu  Cu2  1  0.006924  0.439561  0.188266  1
  Cu  Cu3  1  0.993076  0.060439  0.688266  1
  Cu  Cu4  1  0.501887  0.566317  0.807252  1
  Cu  Cu5  1  0.498113  0.933683  0.307252  1
  Cu  Cu6  1  0.498113  0.433683  0.192748  1
  Cu  Cu7  1  0.501887  0.066317  0.692748  1
  Cu  Cu8  1  0.760479  0.849828  0.858759  1
  Cu  Cu9  1  0.239521  0.650172  0.358759  1
  Cu  Cu10  1  0.239521  0.150172  0.141241  1
  Cu  Cu11  1  0.760479  0.349828  0.641241  1
  Cu  Cu12  1  0.750382  0.183152  0.245253  1
  Cu  Cu13  1  0.249618  0.316848  0.745253  1
  Cu  Cu14  1  0.249618  0.816848  0.754747  1
  Cu  Cu15  1  0.750382  0.683152  0.254747  1
  Cu  Cu16  1  0.779823  0.438343  0.401216  1
  Cu  Cu17  1  0.220177  0.061657  0.901216  1
  Cu  Cu18  1  0.220177  0.561657  0.598784  1
  Cu  Cu19  1  0.779823  0.938343  0.098784  1
  Cu  Cu20  1  0.749392  0.098236  0.484376  1
  Cu  Cu21  1  0.250608  0.401764  0.984376  1
  Cu  Cu22  1  0.250608  0.901764  0.515624  1
  Cu  Cu23  1  0.749392  0.598236  0.015624  1
  La  La24  1  0.738196  0.737908  0.563463  1
  La  La25  1  0.261804  0.762092  0.063463  1
  La  La26  1  0.261804  0.262092  0.436537  1
  La  La27  1  0.738196  0.237908  0.936537  1
