# generated using pymatgen
data_LaFeO3
_symmetry_space_group_name_H-M   'P 1'
_cell_length_a   5.66233609
_cell_length_b   6.45288717
_cell_length_c   9.12439893
_cell_angle_alpha   90.02443033
_cell_angle_beta   89.99544551
_cell_angle_gamma   89.99914233
_symmetry_Int_Tables_number   1
_chemical_formula_structural   LaFeO3
_chemical_formula_sum   'La4 Fe4 O12'
_cell_volume   333.39105160
_cell_formula_units_Z   4
loop_
 _symmetry_equiv_pos_site_id
 _symmetry_equiv_pos_as_xyz
  1  'x, y, z'
loop_
 _atom_site_type_symbol
 _atom_site_label
 _atom_site_symmetry_multiplicity
 _atom_site_fract_x
 _atom_site_fract_y
 _atom_site_fract_z
 _atom_site_occupancy
  La  La0  1  0.500649  0.001668  0.000600  1
  La  La1  1  0.000753  0.498510  0.999421  1
  La  La2  1  0.000707  0.498363  0.500668  1
  La  La3  1  0.500679  0.001568  0.499418  1
  Fe  Fe4  1  0.496408  0.433769  0.250120  1
  Fe  Fe5  1  0.506748  0.578785  0.749867  1
  Fe  Fe6  1  0.006651  0.921164  0.250044  1
  Fe  Fe7  1  0.996293  0.066198  0.750111  1
  O  O8  1  0.146465  0.168661  0.585436  1
  O  O9  1  0.330336  0.956914  0.250003  1
  O  O10  1  0.850424  0.826821  0.085219  1
  O  O11  1  0.646136  0.331642  0.085241  1
  O  O12  1  0.646656  0.331020  0.414701  1
  O  O13  1  0.850494  0.826636  0.414895  1
  O  O14  1  0.350325  0.673432  0.914519  1
  O  O15  1  0.671390  0.037581  0.749995  1
  O  O16  1  0.830441  0.543209  0.750002  1
  O  O17  1  0.171479  0.462487  0.250065  1
  O  O18  1  0.350835  0.672977  0.584864  1
  O  O19  1  0.146132  0.168595  0.914812  1
