# generated using pymatgen
data_La2HfO5
_symmetry_space_group_name_H-M   'P 1'
_cell_length_a   5.66051723
_cell_length_b   6.89988563
_cell_length_c   7.89887910
_cell_angle_alpha   68.29170178
_cell_angle_beta   90.01246638
_cell_angle_gamma   65.83860416
_symmetry_Int_Tables_number   1
_chemical_formula_structural   La2HfO5
_chemical_formula_sum   'La4 Hf2 O10'
_cell_volume   257.29993756
_cell_formula_units_Z   2
loop_
 _symmetry_equiv_pos_site_id
 _symmetry_equiv_pos_as_xyz
  1  'x, y, z'
loop_
 _atom_site_type_symbol
 _atom_site_label
 _atom_site_symmetry_multiplicity
 _atom_site_fract_x
 _atom_site_fract_y
 _atom_site_fract_z
 _atom_site_occupancy
  La  La0  1  0.630618  0.712210  0.768777  1
  La  La1  1  0.661120  0.709908  0.270673  1
  La  La2  1  0.342782  0.288369  0.730358  1
  La  La3  1  0.369841  0.286334  0.232239  1
  Hf  Hf4  1  0.000539  0.998577  0.500034  1
  Hf  Hf5  1  0.001823  0.998819  0.000480  1
  O  O6  1  0.760062  0.850663  0.967329  1
  O  O7  1  0.389343  0.855261  0.463971  1
  O  O8  1  0.010492  0.667789  0.634672  1
  O  O9  1  0.680406  0.330470  0.861733  1
  O  O10  1  0.321371  0.666725  0.141975  1
  O  O11  1  0.990496  0.330516  0.365549  1
  O  O12  1  0.613309  0.141476  0.536778  1
  O  O13  1  0.159354  0.995483  0.751820  1
  O  O14  1  0.241940  0.149832  0.032211  1
  O  O15  1  0.844081  0.001612  0.249831  1
