# generated using pymatgen
data_CeNbO4
_symmetry_space_group_name_H-M   'P 1'
_cell_length_a   5.39864601
_cell_length_b   5.39845573
_cell_length_c   6.91762574
_cell_angle_alpha   112.90368551
_cell_angle_beta   112.98471784
_cell_angle_gamma   89.98890390
_symmetry_Int_Tables_number   1
_chemical_formula_structural   CeNbO4
_chemical_formula_sum   'Ce2 Nb2 O8'
_cell_volume   168.21020761
_cell_formula_units_Z   2
loop_
 _symmetry_equiv_pos_site_id
 _symmetry_equiv_pos_as_xyz
  1  'x, y, z'
loop_
 _atom_site_type_symbol
 _atom_site_label
 _atom_site_symmetry_multiplicity
 _atom_site_fract_x
 _atom_site_fract_y
 _atom_site_fract_z
 _atom_site_occupancy
  Ce  Ce0  1  0.375032  0.124974  0.750038  1
  Ce  Ce1  1  0.624968  0.875026  0.249962  1
  Nb  Nb2  1  0.874842  0.624966  0.750005  1
  Nb  Nb3  1  0.125158  0.375034  0.249995  1
  O  O4  1  0.622391  0.289126  0.576407  1
  O  O5  1  0.287362  0.122494  0.076481  1
  O  O6  1  0.712638  0.877506  0.923519  1
  O  O7  1  0.789074  0.453990  0.076417  1
  O  O8  1  0.210926  0.546010  0.923583  1
  O  O9  1  0.377609  0.710874  0.423593  1
  O  O10  1  0.954021  0.787339  0.576397  1
  O  O11  1  0.045979  0.212661  0.423603  1
