# generated using pymatgen
data_La2HgO4
_symmetry_space_group_name_H-M   'P 1'
_cell_length_a   3.94673810
_cell_length_b   7.36590667
_cell_length_c   9.42466018
_cell_angle_alpha   103.93064507
_cell_angle_beta   102.08623378
_cell_angle_gamma   74.46030885
_symmetry_Int_Tables_number   1
_chemical_formula_structural   La2HgO4
_chemical_formula_sum   'La4 Hg2 O8'
_cell_volume   253.11360996
_cell_formula_units_Z   2
loop_
 _symmetry_equiv_pos_site_id
 _symmetry_equiv_pos_as_xyz
  1  'x, y, z'
loop_
 _atom_site_type_symbol
 _atom_site_label
 _atom_site_symmetry_multiplicity
 _atom_site_fract_x
 _atom_site_fract_y
 _atom_site_fract_z
 _atom_site_occupancy
  La  La0  1  0.380419  0.782148  0.542986  1
  La  La1  1  0.840137  0.522398  0.202671  1
  La  La2  1  0.159863  0.477602  0.797329  1
  La  La3  1  0.619581  0.217852  0.457014  1
  Hg  Hg4  1  0.116094  0.931171  0.163360  1
  Hg  Hg5  1  0.883906  0.068829  0.836640  1
  O  O6  1  0.773766  0.844566  0.392097  1
  O  O7  1  0.202606  0.653155  0.058367  1
  O  O8  1  0.962678  0.795726  0.721082  1
  O  O9  1  0.418020  0.509046  0.345086  1
  O  O10  1  0.581980  0.490954  0.654914  1
  O  O11  1  0.037322  0.204274  0.278918  1
  O  O12  1  0.797394  0.346845  0.941633  1
  O  O13  1  0.226234  0.155434  0.607903  1
