# generated using pymatgen
data_LaMnO3
_symmetry_space_group_name_H-M   'P 1'
_cell_length_a   6.22764426
_cell_length_b   6.25107486
_cell_length_c   10.47480057
_cell_angle_alpha   90.00000000
_cell_angle_beta   90.00000000
_cell_angle_gamma   54.53288292
_symmetry_Int_Tables_number   1
_chemical_formula_structural   LaMnO3
_chemical_formula_sum   'La4 Mn4 O12'
_cell_volume   332.11460281
_cell_formula_units_Z   4
loop_
 _symmetry_equiv_pos_site_id
 _symmetry_equiv_pos_as_xyz
  1  'x, y, z'
loop_
 _atom_site_type_symbol
 _atom_site_label
 _atom_site_symmetry_multiplicity
 _atom_site_fract_x
 _atom_site_fract_y
 _atom_site_fract_z
 _atom_site_occupancy
  La  La0  1  0.495183  0.003835  0.336620  1
  La  La1  1  0.004817  0.996165  0.836620  1
  La  La2  1  0.995183  0.003835  0.163380  1
  La  La3  1  0.504817  0.996165  0.663380  1
  Mn  Mn4  1  0.000000  -0.000000  0.500000  1
  Mn  Mn5  1  0.000000  0.500000  -0.000000  1
  Mn  Mn6  1  0.500000  -0.000000  -0.000000  1
  Mn  Mn7  1  0.500000  0.500000  0.500000  1
  O  O8  1  0.725603  0.230420  0.626442  1
  O  O9  1  0.775139  0.767862  0.873461  1
  O  O10  1  0.732549  0.204677  0.998138  1
  O  O11  1  0.274397  0.769580  0.373558  1
  O  O12  1  0.224861  0.232138  0.126539  1
  O  O13  1  0.767451  0.795323  0.498138  1
  O  O14  1  0.225603  0.230420  0.873558  1
  O  O15  1  0.275139  0.767862  0.626539  1
  O  O16  1  0.267450  0.795323  0.001862  1
  O  O17  1  0.232549  0.204677  0.501862  1
  O  O18  1  0.774397  0.769580  0.126442  1
  O  O19  1  0.724861  0.232138  0.373461  1
