# generated using pymatgen
data_CeNbO4
_symmetry_space_group_name_H-M   'P 1'
_cell_length_a   5.20329066
_cell_length_b   5.51978448
_cell_length_c   6.74155519
_cell_angle_alpha   111.71872374
_cell_angle_beta   110.13201964
_cell_angle_gamma   95.85013215
_symmetry_Int_Tables_number   1
_chemical_formula_structural   CeNbO4
_chemical_formula_sum   'Ce2 Nb2 O8'
_cell_volume   162.94934285
_cell_formula_units_Z   2
loop_
 _symmetry_equiv_pos_site_id
 _symmetry_equiv_pos_as_xyz
  1  'x, y, z'
loop_
 _atom_site_type_symbol
 _atom_site_label
 _atom_site_symmetry_multiplicity
 _atom_site_fract_x
 _atom_site_fract_y
 _atom_site_fract_z
 _atom_site_occupancy
  O  O0  1  0.295737  0.145139  0.085123  1
  O  O1  1  0.789386  0.439984  0.085123  1
  O  O2  1  0.704263  0.854861  0.914877  1
  O  O3  1  0.210614  0.560016  0.914877  1
  O  O4  1  0.504473  0.709926  0.437070  1
  O  O5  1  0.932597  0.227144  0.437070  1
  O  O6  1  0.495527  0.290074  0.562930  1
  O  O7  1  0.067403  0.772856  0.562930  1
  Nb  Nb8  1  0.349452  0.599452  0.698905  1
  Nb  Nb9  1  0.650548  0.400548  0.301095  1
  Ce  Ce10  1  0.880707  0.130707  0.761415  1
  Ce  Ce11  1  0.119293  0.869293  0.238585  1
