# generated using pymatgen
data_LaMo5O8
_symmetry_space_group_name_H-M   'P 1'
_cell_length_a   8.28684030
_cell_length_b   9.36806438
_cell_length_c   10.45752525
_cell_angle_alpha   90.00000000
_cell_angle_beta   111.28560189
_cell_angle_gamma   90.00000000
_symmetry_Int_Tables_number   1
_chemical_formula_structural   LaMo5O8
_chemical_formula_sum   'La4 Mo20 O32'
_cell_volume   756.45360802
_cell_formula_units_Z   4
loop_
 _symmetry_equiv_pos_site_id
 _symmetry_equiv_pos_as_xyz
  1  'x, y, z'
loop_
 _atom_site_type_symbol
 _atom_site_label
 _atom_site_symmetry_multiplicity
 _atom_site_fract_x
 _atom_site_fract_y
 _atom_site_fract_z
 _atom_site_occupancy
  O  O0  1  0.592057  0.500189  0.143803  1
  O  O1  1  0.407943  0.000189  0.356196  1
  O  O2  1  0.407943  0.499811  0.856196  1
  O  O3  1  0.592057  0.999811  0.643804  1
  O  O4  1  0.378643  0.718927  0.669170  1
  O  O5  1  0.621357  0.218927  0.830830  1
  O  O6  1  0.621357  0.281073  0.330830  1
  O  O7  1  0.378643  0.781073  0.169170  1
  O  O8  1  0.605785  0.755682  0.491933  1
  O  O9  1  0.394214  0.255682  0.008067  1
  O  O10  1  0.394214  0.244318  0.508067  1
  O  O11  1  0.605785  0.744317  0.991933  1
  O  O12  1  0.035015  0.497004  0.258451  1
  O  O13  1  0.964985  0.997004  0.241549  1
  O  O14  1  0.964985  0.502996  0.741549  1
  O  O15  1  0.035015  0.002995  0.758451  1
  O  O16  1  0.790513  0.720983  0.304891  1
  O  O17  1  0.209487  0.220983  0.195109  1
  O  O18  1  0.209487  0.279017  0.695108  1
  O  O19  1  0.790513  0.779017  0.804892  1
  O  O20  1  0.188437  0.728894  0.391084  1
  O  O21  1  0.811563  0.228894  0.108917  1
  O  O22  1  0.811563  0.271106  0.608917  1
  O  O23  1  0.188437  0.771106  0.891083  1
  O  O24  1  0.593221  0.013969  0.149800  1
  O  O25  1  0.406779  0.513969  0.350200  1
  O  O26  1  0.406779  0.986031  0.850201  1
  O  O27  1  0.593221  0.486031  0.649799  1
  O  O28  1  0.987284  0.740122  0.586496  1
  O  O29  1  0.012716  0.259878  0.413505  1
  O  O30  1  0.012716  0.240122  0.913504  1
  O  O31  1  0.987284  0.759878  0.086495  1
  Mo  Mo32  1  0.599955  0.625540  0.812736  1
  Mo  Mo33  1  0.400044  0.125540  0.687264  1
  Mo  Mo34  1  0.400044  0.374460  0.187264  1
  Mo  Mo35  1  0.599955  0.874460  0.312736  1
  Mo  Mo36  1  0.203436  0.637527  0.208725  1
  Mo  Mo37  1  0.796564  0.137527  0.291274  1
  Mo  Mo38  1  0.796564  0.362474  0.791274  1
  Mo  Mo39  1  0.203436  0.862474  0.708726  1
  Mo  Mo40  1  0.809382  0.619079  0.130652  1
  Mo  Mo41  1  0.190619  0.119079  0.369349  1
  Mo  Mo42  1  0.190619  0.380921  0.869349  1
  Mo  Mo43  1  0.809382  0.880921  0.630651  1
  Mo  Mo44  1  0.387222  0.860980  0.515414  1
  Mo  Mo45  1  0.006244  0.138916  0.585831  1
  Mo  Mo46  1  0.006244  0.361084  0.085830  1
  Mo  Mo47  1  0.993756  0.861084  0.414170  1
  Mo  Mo48  1  0.387222  0.639020  0.015414  1
  Mo  Mo49  1  0.612779  0.139019  0.484587  1
  Mo  Mo50  1  0.612779  0.360981  0.984586  1
  Mo  Mo51  1  0.993756  0.638915  0.914169  1
  La  La52  1  0.730509  0.523605  0.485204  1
  La  La53  1  0.269491  0.023605  0.014795  1
  La  La54  1  0.269491  0.476396  0.514795  1
  La  La55  1  0.730509  0.976396  0.985205  1
