# generated using pymatgen
data_La2Mo2O7
_symmetry_space_group_name_H-M   'P 1'
_cell_length_a   4.00693507
_cell_length_b   6.10335472
_cell_length_c   12.39231975
_cell_angle_alpha   90.00000000
_cell_angle_beta   90.00000000
_cell_angle_gamma   90.00000000
_symmetry_Int_Tables_number   1
_chemical_formula_structural   La2Mo2O7
_chemical_formula_sum   'La4 Mo4 O14'
_cell_volume   303.06342505
_cell_formula_units_Z   2
loop_
 _symmetry_equiv_pos_site_id
 _symmetry_equiv_pos_as_xyz
  1  'x, y, z'
loop_
 _atom_site_type_symbol
 _atom_site_label
 _atom_site_symmetry_multiplicity
 _atom_site_fract_x
 _atom_site_fract_y
 _atom_site_fract_z
 _atom_site_occupancy
  O  O0  1  0.499999  0.267945  0.043026  1
  O  O1  1  0.499999  0.732056  0.956975  1
  O  O2  1  0.000000  0.767944  0.456974  1
  O  O3  1  0.000000  0.232055  0.543026  1
  O  O4  1  0.499999  0.115455  0.382576  1
  O  O5  1  0.499999  0.884544  0.617424  1
  O  O6  1  0.000000  0.615456  0.117424  1
  O  O7  1  0.000000  0.384544  0.882576  1
  O  O8  1  0.000000  0.000000  0.000000  1
  O  O9  1  0.499999  0.500001  0.500000  1
  O  O10  1  0.000000  0.149677  0.202195  1
  O  O11  1  0.499999  0.350323  0.702195  1
  O  O12  1  0.499999  0.649678  0.297805  1
  O  O13  1  0.000000  0.850322  0.797805  1
  Mo  Mo14  1  0.499999  0.185977  0.551697  1
  Mo  Mo15  1  0.499999  0.814024  0.448303  1
  Mo  Mo16  1  0.000000  0.685976  0.948303  1
  Mo  Mo17  1  0.000000  0.314023  0.051697  1
  La  La18  1  0.499999  0.095049  0.843594  1
  La  La19  1  0.499999  0.904950  0.156406  1
  La  La20  1  0.000000  0.595050  0.656406  1
  La  La21  1  0.000000  0.404951  0.343594  1
