# generated using pymatgen
data_LaNb7O12
_symmetry_space_group_name_H-M   'P 1'
_cell_length_a   9.32203181
_cell_length_b   10.47012119
_cell_length_c   10.92651178
_cell_angle_alpha   104.35857664
_cell_angle_beta   90.00000000
_cell_angle_gamma   90.00000000
_symmetry_Int_Tables_number   1
_chemical_formula_structural   LaNb7O12
_chemical_formula_sum   'La4 Nb28 O48'
_cell_volume   1033.14490498
_cell_formula_units_Z   4
loop_
 _symmetry_equiv_pos_site_id
 _symmetry_equiv_pos_as_xyz
  1  'x, y, z'
loop_
 _atom_site_type_symbol
 _atom_site_label
 _atom_site_symmetry_multiplicity
 _atom_site_fract_x
 _atom_site_fract_y
 _atom_site_fract_z
 _atom_site_occupancy
  O  O0  1  0.228126  0.578720  0.718785  1
  O  O1  1  0.728126  0.921280  0.281215  1
  O  O2  1  0.771874  0.421280  0.281215  1
  O  O3  1  0.271874  0.078720  0.718785  1
  O  O4  1  0.264156  0.954129  0.151815  1
  O  O5  1  0.764156  0.545871  0.848185  1
  O  O6  1  0.735844  0.045871  0.848185  1
  O  O7  1  0.235844  0.454129  0.151815  1
  O  O8  1  0.270363  0.813343  0.586375  1
  O  O9  1  0.770363  0.686657  0.413625  1
  O  O10  1  0.729637  0.186657  0.413625  1
  O  O11  1  0.229637  0.313343  0.586375  1
  O  O12  1  0.231519  0.720575  0.291537  1
  O  O13  1  0.731519  0.779425  0.708463  1
  O  O14  1  0.768481  0.279425  0.708463  1
  O  O15  1  0.268481  0.220575  0.291537  1
  O  O16  1  0.252498  0.019160  0.423617  1
  O  O17  1  0.752498  0.480840  0.576383  1
  O  O18  1  0.747502  0.980840  0.576383  1
  O  O19  1  0.247502  0.519160  0.423617  1
  O  O20  1  0.741500  0.121588  0.136975  1
  O  O21  1  0.241500  0.378412  0.863025  1
  O  O22  1  0.258500  0.878412  0.863025  1
  O  O23  1  0.758500  0.621588  0.136975  1
  O  O24  1  0.233426  0.182673  0.004128  1
  O  O25  1  0.733426  0.317327  0.995872  1
  O  O26  1  0.766574  0.817327  0.995872  1
  O  O27  1  0.266574  0.682673  0.004128  1
  O  O28  1  0.000000  0.500000  0.000000  1
  O  O29  1  0.500000  0.000000  0.000000  1
  O  O30  1  0.000473  0.138364  0.569311  1
  O  O31  1  0.500473  0.361636  0.430689  1
  O  O32  1  0.999527  0.861636  0.430689  1
  O  O33  1  0.499527  0.638364  0.569311  1
  O  O34  1  0.000000  0.000000  0.000000  1
  O  O35  1  0.500000  0.500000  0.000000  1
  O  O36  1  0.008338  0.292968  0.151313  1
  O  O37  1  0.508338  0.207032  0.848687  1
  O  O38  1  0.991662  0.707032  0.848687  1
  O  O39  1  0.491662  0.792968  0.151313  1
  O  O40  1  0.004575  0.215067  0.860943  1
  O  O41  1  0.504575  0.284933  0.139057  1
  O  O42  1  0.995425  0.784933  0.139057  1
  O  O43  1  0.495425  0.715067  0.860943  1
  O  O44  1  0.998113  0.357010  0.429721  1
  O  O45  1  0.498113  0.142990  0.570279  1
  O  O46  1  0.001887  0.642990  0.570279  1
  O  O47  1  0.501887  0.857010  0.429721  1
  Nb  Nb48  1  0.119227  0.184384  0.419399  1
  Nb  Nb49  1  0.619227  0.315616  0.580601  1
  Nb  Nb50  1  0.880773  0.815616  0.580601  1
  Nb  Nb51  1  0.380773  0.684384  0.419399  1
  Nb  Nb52  1  0.116232  0.907587  0.280168  1
  Nb  Nb53  1  0.616232  0.592413  0.719832  1
  Nb  Nb54  1  0.883768  0.092413  0.719832  1
  Nb  Nb55  1  0.383768  0.407587  0.280168  1
  Nb  Nb56  1  0.125749  0.117542  0.155186  1
  Nb  Nb57  1  0.625749  0.382458  0.844814  1
  Nb  Nb58  1  0.874251  0.882458  0.844814  1
  Nb  Nb59  1  0.374251  0.617542  0.155186  1
  Nb  Nb60  1  0.134345  0.968253  0.587850  1
  Nb  Nb61  1  0.634345  0.531747  0.412150  1
  Nb  Nb62  1  0.865655  0.031747  0.412150  1
  Nb  Nb63  1  0.365655  0.468253  0.587850  1
  Nb  Nb64  1  0.872495  0.961275  0.149086  1
  Nb  Nb65  1  0.372495  0.538725  0.850914  1
  Nb  Nb66  1  0.127505  0.038725  0.850914  1
  Nb  Nb67  1  0.627505  0.461275  0.149086  1
  Nb  Nb68  1  0.123687  0.768189  0.717661  1
  Nb  Nb69  1  0.623687  0.731811  0.282339  1
  Nb  Nb70  1  0.876313  0.231811  0.282339  1
  Nb  Nb71  1  0.376313  0.268189  0.717661  1
  Nb  Nb72  1  0.113798  0.339254  0.999816  1
  Nb  Nb73  1  0.613798  0.160746  0.000184  1
  Nb  Nb74  1  0.886202  0.660746  0.000184  1
  Nb  Nb75  1  0.386202  0.839254  0.999816  1
  La  La76  1  0.482791  0.048393  0.336886  1
  La  La77  1  0.982791  0.451607  0.663114  1
  La  La78  1  0.517209  0.951607  0.663114  1
  La  La79  1  0.017209  0.548393  0.336886  1
