# generated using pymatgen
data_La2NiRuO6
_symmetry_space_group_name_H-M   'P 1'
_cell_length_a   5.55368426
_cell_length_b   5.75081724
_cell_length_c   7.92355786
_cell_angle_alpha   90.00000000
_cell_angle_beta   89.68474671
_cell_angle_gamma   90.00000000
_symmetry_Int_Tables_number   1
_chemical_formula_structural   La2NiRuO6
_chemical_formula_sum   'La4 Ni2 Ru2 O12'
_cell_volume   253.06052861
_cell_formula_units_Z   2
loop_
 _symmetry_equiv_pos_site_id
 _symmetry_equiv_pos_as_xyz
  1  'x, y, z'
loop_
 _atom_site_type_symbol
 _atom_site_label
 _atom_site_symmetry_multiplicity
 _atom_site_fract_x
 _atom_site_fract_y
 _atom_site_fract_z
 _atom_site_occupancy
  O  O0  1  0.411110  0.977222  0.253243  1
  O  O1  1  0.088890  0.477222  0.246757  1
  O  O2  1  0.588890  0.022778  0.746757  1
  O  O3  1  0.911110  0.522778  0.753243  1
  O  O4  1  0.698425  0.291635  0.450735  1
  O  O5  1  0.801575  0.791635  0.049265  1
  O  O6  1  0.301575  0.708365  0.549265  1
  O  O7  1  0.198425  0.208365  0.950735  1
  O  O8  1  0.293864  0.699961  0.955680  1
  O  O9  1  0.206136  0.199961  0.544320  1
  O  O10  1  0.706136  0.300039  0.044320  1
  O  O11  1  0.793864  0.800039  0.455680  1
  Ni  Ni12  1  0.500000  0.000000  0.000000  1
  Ni  Ni13  1  0.000000  0.500000  0.500000  1
  Ru  Ru14  1  0.500000  0.000000  0.500000  1
  Ru  Ru15  1  0.000000  0.500000  0.000000  1
  La  La16  1  0.513254  0.555510  0.249863  1
  La  La17  1  0.986746  0.055510  0.250137  1
  La  La18  1  0.486746  0.444490  0.750137  1
  La  La19  1  0.013254  0.944490  0.749863  1
