# generated using pymatgen
data_La2Ni2O5
_symmetry_space_group_name_H-M   'P 1'
_cell_length_a   5.60134697
_cell_length_b   5.60134698
_cell_length_c   7.55809809
_cell_angle_alpha   85.75092936
_cell_angle_beta   85.75092937
_cell_angle_gamma   90.66535762
_symmetry_Int_Tables_number   1
_chemical_formula_structural   La2Ni2O5
_chemical_formula_sum   'La4 Ni4 O10'
_cell_volume   235.79932033
_cell_formula_units_Z   2
loop_
 _symmetry_equiv_pos_site_id
 _symmetry_equiv_pos_as_xyz
  1  'x, y, z'
loop_
 _atom_site_type_symbol
 _atom_site_label
 _atom_site_symmetry_multiplicity
 _atom_site_fract_x
 _atom_site_fract_y
 _atom_site_fract_z
 _atom_site_occupancy
  O  O0  1  0.060986  0.939014  0.250000  1
  O  O1  1  0.939014  0.060986  0.750000  1
  O  O2  1  0.694672  0.231261  0.455214  1
  O  O3  1  0.768739  0.305328  0.044786  1
  O  O4  1  0.305328  0.768739  0.544786  1
  O  O5  1  0.231261  0.694672  0.955214  1
  O  O6  1  0.227718  0.314361  0.461063  1
  O  O7  1  0.685639  0.772282  0.038937  1
  O  O8  1  0.314361  0.227718  0.961063  1
  O  O9  1  0.772282  0.685639  0.538937  1
  Ni  Ni10  1  0.500000  0.500000  0.500000  1
  Ni  Ni11  1  0.500000  0.500000  0.000000  1
  Ni  Ni12  1  0.000000  0.000000  0.500000  1
  Ni  Ni13  1  0.000000  0.000000  0.000000  1
  La  La14  1  0.977725  0.516492  0.251398  1
  La  La15  1  0.483508  0.022275  0.248602  1
  La  La16  1  0.022275  0.483508  0.748602  1
  La  La17  1  0.516492  0.977725  0.751398  1
