# generated using pymatgen
data_LaPdO3
_symmetry_space_group_name_H-M   'P 1'
_cell_length_a   5.64433579
_cell_length_b   6.03527423
_cell_length_c   7.86131216
_cell_angle_alpha   90.00000000
_cell_angle_beta   90.00000000
_cell_angle_gamma   90.00000000
_symmetry_Int_Tables_number   1
_chemical_formula_structural   LaPdO3
_chemical_formula_sum   'La4 Pd4 O12'
_cell_volume   267.79649758
_cell_formula_units_Z   4
loop_
 _symmetry_equiv_pos_site_id
 _symmetry_equiv_pos_as_xyz
  1  'x, y, z'
loop_
 _atom_site_type_symbol
 _atom_site_label
 _atom_site_symmetry_multiplicity
 _atom_site_fract_x
 _atom_site_fract_y
 _atom_site_fract_z
 _atom_site_occupancy
  O  O0  1  0.694080  0.300895  0.447996  1
  O  O1  1  0.194080  0.199105  0.552004  1
  O  O2  1  0.805920  0.800895  0.052004  1
  O  O3  1  0.305920  0.699105  0.947996  1
  O  O4  1  0.305920  0.699105  0.552004  1
  O  O5  1  0.805920  0.800895  0.447996  1
  O  O6  1  0.194080  0.199105  0.947996  1
  O  O7  1  0.694080  0.300895  0.052004  1
  O  O8  1  0.110178  0.460253  0.250000  1
  O  O9  1  0.610178  0.039747  0.750000  1
  O  O10  1  0.389822  0.960253  0.250000  1
  O  O11  1  0.889822  0.539747  0.750000  1
  Pd  Pd12  1  0.500000  0.000000  0.500000  1
  Pd  Pd13  1  0.000000  0.500000  0.500000  1
  Pd  Pd14  1  0.000000  0.500000  0.000000  1
  Pd  Pd15  1  0.500000  0.000000  0.000000  1
  La  La16  1  0.020430  0.929509  0.750000  1
  La  La17  1  0.520430  0.570491  0.250000  1
  La  La18  1  0.479570  0.429509  0.750000  1
  La  La19  1  0.979570  0.070491  0.250000  1
