# generated using pymatgen
data_La2ReO5
_symmetry_space_group_name_H-M   'P 1'
_cell_length_a   6.05915564
_cell_length_b   7.04223618
_cell_length_c   7.04223619
_cell_angle_alpha   79.33461181
_cell_angle_beta   64.51967631
_cell_angle_gamma   64.51967629
_symmetry_Int_Tables_number   1
_chemical_formula_structural   La2ReO5
_chemical_formula_sum   'La4 Re2 O10'
_cell_volume   244.87925296
_cell_formula_units_Z   2
loop_
 _symmetry_equiv_pos_site_id
 _symmetry_equiv_pos_as_xyz
  1  'x, y, z'
loop_
 _atom_site_type_symbol
 _atom_site_label
 _atom_site_symmetry_multiplicity
 _atom_site_fract_x
 _atom_site_fract_y
 _atom_site_fract_z
 _atom_site_occupancy
  O  O0  1  0.837003  0.092435  0.716545  1
  O  O1  1  0.553548  0.283455  0.092435  1
  O  O2  1  0.929438  0.716545  0.907565  1
  O  O3  1  0.645983  0.907565  0.283455  1
  O  O4  1  0.162997  0.907565  0.283455  1
  O  O5  1  0.446452  0.716545  0.907565  1
  O  O6  1  0.750000  0.500000  0.500000  1
  O  O7  1  0.250000  0.500000  0.500000  1
  O  O8  1  0.354017  0.092435  0.716545  1
  O  O9  1  0.070562  0.283455  0.092435  1
  La  La10  1  0.818169  0.786826  0.576837  1
  La  La11  1  0.395005  0.423163  0.786826  1
  La  La12  1  0.604995  0.576837  0.213174  1
  La  La13  1  0.181831  0.213174  0.423163  1
  Re  Re14  1  0.812082  0.000000  0.000000  1
  Re  Re15  1  0.187918  0.000000  0.000000  1
