# generated using pymatgen
data_LaRhC2
_symmetry_space_group_name_H-M   'P 1'
_cell_length_a   3.99129054
_cell_length_b   3.99129054
_cell_length_c   15.41941470
_cell_angle_alpha   90.00000000
_cell_angle_beta   90.00000000
_cell_angle_gamma   90.00000000
_symmetry_Int_Tables_number   1
_chemical_formula_structural   LaRhC2
_chemical_formula_sum   'La4 Rh4 C8'
_cell_volume   245.63744663
_cell_formula_units_Z   4
loop_
 _symmetry_equiv_pos_site_id
 _symmetry_equiv_pos_as_xyz
  1  'x, y, z'
loop_
 _atom_site_type_symbol
 _atom_site_label
 _atom_site_symmetry_multiplicity
 _atom_site_fract_x
 _atom_site_fract_y
 _atom_site_fract_z
 _atom_site_occupancy
  C  C0  1  0.649417  0.334293  0.584968  1
  C  C1  1  0.665707  0.649417  0.834968  1
  C  C2  1  0.334293  0.350583  0.334968  1
  C  C3  1  0.350583  0.665707  0.084968  1
  C  C4  1  0.846527  0.346197  0.513486  1
  C  C5  1  0.653803  0.846527  0.763486  1
  C  C6  1  0.346197  0.153473  0.263486  1
  C  C7  1  0.153473  0.653803  0.013486  1
  Rh  Rh8  1  0.659088  0.647156  0.969494  1
  Rh  Rh9  1  0.352844  0.659088  0.219494  1
  Rh  Rh10  1  0.647156  0.340912  0.719494  1
  Rh  Rh11  1  0.340912  0.352844  0.469494  1
  La  La12  1  0.851593  0.850991  0.375752  1
  La  La13  1  0.149009  0.851593  0.625752  1
  La  La14  1  0.850991  0.148407  0.125752  1
  La  La15  1  0.148407  0.149009  0.875752  1
