# generated using pymatgen
data_LaRuO3
_symmetry_space_group_name_H-M   'P 1'
_cell_length_a   5.47649910
_cell_length_b   5.91310587
_cell_length_c   7.92461960
_cell_angle_alpha   90.00000000
_cell_angle_beta   90.00000000
_cell_angle_gamma   90.00000000
_symmetry_Int_Tables_number   1
_chemical_formula_structural   LaRuO3
_chemical_formula_sum   'La4 Ru4 O12'
_cell_volume   256.62389934
_cell_formula_units_Z   4
loop_
 _symmetry_equiv_pos_site_id
 _symmetry_equiv_pos_as_xyz
  1  'x, y, z'
loop_
 _atom_site_type_symbol
 _atom_site_label
 _atom_site_symmetry_multiplicity
 _atom_site_fract_x
 _atom_site_fract_y
 _atom_site_fract_z
 _atom_site_occupancy
  O  O0  1  0.900783  0.534069  0.750000  1
  O  O1  1  0.400783  0.965931  0.250000  1
  O  O2  1  0.599217  0.034069  0.750000  1
  O  O3  1  0.099217  0.465931  0.250000  1
  O  O4  1  0.692085  0.299106  0.450059  1
  O  O5  1  0.192085  0.200894  0.549941  1
  O  O6  1  0.807915  0.799106  0.049941  1
  O  O7  1  0.307915  0.700894  0.950059  1
  O  O8  1  0.692085  0.299106  0.049941  1
  O  O9  1  0.192085  0.200894  0.950059  1
  O  O10  1  0.807915  0.799106  0.450059  1
  O  O11  1  0.307915  0.700894  0.549941  1
  Ru  Ru12  1  0.500000  0.000000  0.500000  1
  Ru  Ru13  1  0.000000  0.500000  0.500000  1
  Ru  Ru14  1  0.000000  0.500000  0.000000  1
  Ru  Ru15  1  0.500000  0.000000  0.000000  1
  La  La16  1  0.020169  0.934929  0.750000  1
  La  La17  1  0.520169  0.565071  0.250000  1
  La  La18  1  0.479831  0.434929  0.750000  1
  La  La19  1  0.979831  0.065071  0.250000  1
