# generated using pymatgen
data_LaTiO3
_symmetry_space_group_name_H-M   'P 1'
_cell_length_a   5.67329718
_cell_length_b   5.56856009
_cell_length_c   7.93828829
_cell_angle_alpha   90.00000000
_cell_angle_beta   90.00000000
_cell_angle_gamma   90.00000000
_symmetry_Int_Tables_number   1
_chemical_formula_structural   LaTiO3
_chemical_formula_sum   'La4 Ti4 O12'
_cell_volume   250.78716776
_cell_formula_units_Z   4
loop_
 _symmetry_equiv_pos_site_id
 _symmetry_equiv_pos_as_xyz
  1  'x, y, z'
loop_
 _atom_site_type_symbol
 _atom_site_label
 _atom_site_symmetry_multiplicity
 _atom_site_fract_x
 _atom_site_fract_y
 _atom_site_fract_z
 _atom_site_occupancy
  O  O0  1  0.710782  0.291483  0.536844  1
  O  O1  1  0.210782  0.208517  0.963156  1
  O  O2  1  0.789218  0.791483  0.463156  1
  O  O3  1  0.289218  0.708517  0.036844  1
  O  O4  1  0.289218  0.708517  0.463156  1
  O  O5  1  0.789218  0.791483  0.036844  1
  O  O6  1  0.210782  0.208517  0.536844  1
  O  O7  1  0.710782  0.291483  0.963156  1
  O  O8  1  0.513269  0.931443  0.750000  1
  O  O9  1  0.013269  0.568557  0.750000  1
  O  O10  1  0.986731  0.431443  0.250000  1
  O  O11  1  0.486731  0.068557  0.250000  1
  Ti  Ti12  1  0.500000  0.000000  0.500000  1
  Ti  Ti13  1  0.000000  0.500000  0.000000  1
  Ti  Ti14  1  0.000000  0.500000  0.500000  1
  Ti  Ti15  1  0.500000  0.000000  0.000000  1
  La  La16  1  0.047369  0.992442  0.250000  1
  La  La17  1  0.547369  0.507558  0.250000  1
  La  La18  1  0.452631  0.492442  0.750000  1
  La  La19  1  0.952631  0.007558  0.750000  1
