# generated using pymatgen
data_La2Ti3O9
_symmetry_space_group_name_H-M   'P 1'
_cell_length_a   7.92044909
_cell_length_b   9.01208916
_cell_length_c   5.91399480
_cell_angle_alpha   108.23614106
_cell_angle_beta   91.22821227
_cell_angle_gamma   108.39917017
_symmetry_Int_Tables_number   1
_chemical_formula_structural   La2Ti3O9
_chemical_formula_sum   'La4 Ti6 O18'
_cell_volume   377.04258324
_cell_formula_units_Z   2
loop_
 _symmetry_equiv_pos_site_id
 _symmetry_equiv_pos_as_xyz
  1  'x, y, z'
loop_
 _atom_site_type_symbol
 _atom_site_label
 _atom_site_symmetry_multiplicity
 _atom_site_fract_x
 _atom_site_fract_y
 _atom_site_fract_z
 _atom_site_occupancy
  La  La0  1  0.180805  0.579765  0.806847  1
  La  La1  1  0.192732  0.214879  0.128809  1
  La  La2  1  0.807268  0.785121  0.871191  1
  La  La3  1  0.819195  0.420235  0.193153  1
  Ti  Ti4  1  0.075664  0.851061  0.426327  1
  Ti  Ti5  1  0.486439  0.998378  0.766586  1
  Ti  Ti6  1  0.483943  0.660908  0.338915  1
  Ti  Ti7  1  0.516057  0.339092  0.661085  1
  Ti  Ti8  1  0.513561  0.001622  0.233414  1
  Ti  Ti9  1  0.924336  0.148939  0.573673  1
  O  O10  1  0.003156  0.998416  0.716318  1
  O  O11  1  0.011450  0.694325  0.118370  1
  O  O12  1  0.025048  0.690179  0.579137  1
  O  O13  1  0.324658  0.954741  0.989916  1
  O  O14  1  0.324571  0.948659  0.459794  1
  O  O15  1  0.281041  0.496630  0.184053  1
  O  O16  1  0.321312  0.390343  0.612245  1
  O  O17  1  0.461323  0.763034  0.656658  1
  O  O18  1  0.521387  0.775425  0.121451  1
  O  O19  1  0.478613  0.224575  0.878549  1
  O  O20  1  0.538677  0.236966  0.343342  1
  O  O21  1  0.678688  0.609657  0.387755  1
  O  O22  1  0.718959  0.503370  0.815947  1
  O  O23  1  0.675429  0.051341  0.540206  1
  O  O24  1  0.675342  0.045259  0.010084  1
  O  O25  1  0.974952  0.309821  0.420863  1
  O  O26  1  0.988550  0.305675  0.881630  1
  O  O27  1  0.996844  0.001584  0.283682  1
