# generated using pymatgen
data_La2Ti3O9
_symmetry_space_group_name_H-M   'P 1'
_cell_length_a   8.02750887
_cell_length_b   6.05326272
_cell_length_c   8.76397234
_cell_angle_alpha   90.00000000
_cell_angle_beta   110.75615733
_cell_angle_gamma   90.00000000
_symmetry_Int_Tables_number   1
_chemical_formula_structural   La2Ti3O9
_chemical_formula_sum   'La4 Ti6 O18'
_cell_volume   398.22455870
_cell_formula_units_Z   2
loop_
 _symmetry_equiv_pos_site_id
 _symmetry_equiv_pos_as_xyz
  1  'x, y, z'
loop_
 _atom_site_type_symbol
 _atom_site_label
 _atom_site_symmetry_multiplicity
 _atom_site_fract_x
 _atom_site_fract_y
 _atom_site_fract_z
 _atom_site_occupancy
  La  La0  1  0.211864  0.750840  0.747919  1
  La  La1  1  0.194419  0.249977  0.107457  1
  La  La2  1  0.805581  0.749977  0.892543  1
  La  La3  1  0.788136  0.250840  0.252081  1
  Ti  Ti4  1  0.075760  0.749685  0.312385  1
  Ti  Ti5  1  0.508337  0.249708  0.829269  1
  Ti  Ti6  1  0.485144  0.478772  0.493012  1
  Ti  Ti7  1  0.514856  0.978772  0.506988  1
  Ti  Ti8  1  0.491663  0.749708  0.170731  1
  Ti  Ti9  1  0.924240  0.249685  0.687615  1
  O  O10  1  0.999790  0.246061  0.522005  1
  O  O11  1  0.998313  0.994835  0.183427  1
  O  O12  1  0.995678  0.507834  0.179383  1
  O  O13  1  0.368889  0.250379  0.948156  1
  O  O14  1  0.328708  0.747085  0.414625  1
  O  O15  1  0.329646  0.257495  0.417807  1
  O  O16  1  0.460409  0.985121  0.710453  1
  O  O17  1  0.466347  0.515872  0.712135  1
  O  O18  1  0.264950  0.745699  0.035809  1
  O  O19  1  0.735050  0.245699  0.964191  1
  O  O20  1  0.533653  0.015872  0.287865  1
  O  O21  1  0.539591  0.485121  0.289547  1
  O  O22  1  0.670354  0.757495  0.582193  1
  O  O23  1  0.671292  0.247085  0.585375  1
  O  O24  1  0.631111  0.750379  0.051844  1
  O  O25  1  0.004322  0.007834  0.820617  1
  O  O26  1  0.001687  0.494835  0.816573  1
  O  O27  1  0.000210  0.746061  0.477995  1
