# generated using pymatgen
data_La2W2O9
_symmetry_space_group_name_H-M   'P 1'
_cell_length_a   7.08916388
_cell_length_b   7.47821340
_cell_length_c   7.39323993
_cell_angle_alpha   70.16561615
_cell_angle_beta   82.94922506
_cell_angle_gamma   84.51828955
_symmetry_Int_Tables_number   1
_chemical_formula_structural   La2W2O9
_chemical_formula_sum   'La4 W4 O18'
_cell_volume   365.29786900
_cell_formula_units_Z   2
loop_
 _symmetry_equiv_pos_site_id
 _symmetry_equiv_pos_as_xyz
  1  'x, y, z'
loop_
 _atom_site_type_symbol
 _atom_site_label
 _atom_site_symmetry_multiplicity
 _atom_site_fract_x
 _atom_site_fract_y
 _atom_site_fract_z
 _atom_site_occupancy
  O  O0  1  0.651717  0.363611  0.646006  1
  O  O1  1  0.348283  0.636389  0.353995  1
  O  O2  1  0.981842  0.150559  0.728026  1
  O  O3  1  0.018158  0.849441  0.271975  1
  O  O4  1  0.508094  0.098121  0.232902  1
  O  O5  1  0.491906  0.901878  0.767098  1
  O  O6  1  0.338268  0.250604  0.510851  1
  O  O7  1  0.661732  0.749395  0.489151  1
  O  O8  1  0.728024  0.830425  0.078352  1
  O  O9  1  0.271976  0.169575  0.921648  1
  O  O10  1  0.185457  0.910575  0.579749  1
  O  O11  1  0.814543  0.089427  0.420250  1
  O  O12  1  0.025716  0.534229  0.707502  1
  O  O13  1  0.318703  0.468907  0.095407  1
  O  O14  1  0.144842  0.798235  0.940360  1
  O  O15  1  0.855158  0.201766  0.059639  1
  O  O16  1  0.681297  0.531093  0.904593  1
  O  O17  1  0.974284  0.465770  0.292499  1
  La  La18  1  0.160100  0.151146  0.259218  1
  La  La19  1  0.839901  0.848855  0.740782  1
  La  La20  1  0.619931  0.397062  0.278992  1
  La  La21  1  0.380069  0.602938  0.721008  1
  W  W22  1  0.842108  0.358597  0.797406  1
  W  W23  1  0.157892  0.641403  0.202594  1
  W  W24  1  0.270746  0.057379  0.734017  1
  W  W25  1  0.729254  0.942621  0.265984  1
