# generated using pymatgen
data_La2ZnIrO6
_symmetry_space_group_name_H-M   'P 1'
_cell_length_a   5.59016237
_cell_length_b   5.82285370
_cell_length_c   7.97055310
_cell_angle_alpha   90.00000000
_cell_angle_beta   90.09488011
_cell_angle_gamma   90.00000000
_symmetry_Int_Tables_number   1
_chemical_formula_structural   La2ZnIrO6
_chemical_formula_sum   'La4 Zn2 Ir2 O12'
_cell_volume   259.44670801
_cell_formula_units_Z   2
loop_
 _symmetry_equiv_pos_site_id
 _symmetry_equiv_pos_as_xyz
  1  'x, y, z'
loop_
 _atom_site_type_symbol
 _atom_site_label
 _atom_site_symmetry_multiplicity
 _atom_site_fract_x
 _atom_site_fract_y
 _atom_site_fract_z
 _atom_site_occupancy
  O  O0  1  0.904184  0.528068  0.753478  1
  O  O1  1  0.595816  0.028068  0.746522  1
  O  O2  1  0.095816  0.471932  0.246522  1
  O  O3  1  0.404184  0.971932  0.253478  1
  O  O4  1  0.797007  0.802180  0.449804  1
  O  O5  1  0.702993  0.302180  0.050196  1
  O  O6  1  0.202993  0.197820  0.550196  1
  O  O7  1  0.297007  0.697820  0.949804  1
  O  O8  1  0.190182  0.208912  0.948121  1
  O  O9  1  0.309818  0.708912  0.551879  1
  O  O10  1  0.809818  0.791088  0.051879  1
  O  O11  1  0.690182  0.291088  0.448121  1
  Zn  Zn12  1  0.000000  0.500000  0.500000  1
  Zn  Zn13  1  0.500000  0.000000  0.000000  1
  La  La14  1  0.514953  0.559518  0.248977  1
  La  La15  1  0.985047  0.059518  0.251023  1
  La  La16  1  0.014953  0.940482  0.748977  1
  La  La17  1  0.485047  0.440482  0.751023  1
  Ir  Ir18  1  0.000000  0.500000  0.000000  1
  Ir  Ir19  1  0.500000  0.000000  0.500000  1
