# generated using pymatgen
data_La2ZnRhO6
_symmetry_space_group_name_H-M   'P 1'
_cell_length_a   5.59195623
_cell_length_b   5.79491026
_cell_length_c   7.94997116
_cell_angle_alpha   90.00000000
_cell_angle_beta   89.95979989
_cell_angle_gamma   90.00000000
_symmetry_Int_Tables_number   1
_chemical_formula_structural   La2ZnRhO6
_chemical_formula_sum   'La4 Zn2 Rh2 O12'
_cell_volume   257.61783436
_cell_formula_units_Z   2
loop_
 _symmetry_equiv_pos_site_id
 _symmetry_equiv_pos_as_xyz
  1  'x, y, z'
loop_
 _atom_site_type_symbol
 _atom_site_label
 _atom_site_symmetry_multiplicity
 _atom_site_fract_x
 _atom_site_fract_y
 _atom_site_fract_z
 _atom_site_occupancy
  O  O0  1  0.906015  0.527857  0.753783  1
  O  O1  1  0.593985  0.027857  0.746217  1
  O  O2  1  0.093985  0.472143  0.246217  1
  O  O3  1  0.406015  0.972143  0.253783  1
  O  O4  1  0.795245  0.801757  0.450522  1
  O  O5  1  0.704755  0.301757  0.049478  1
  O  O6  1  0.204755  0.198243  0.549478  1
  O  O7  1  0.295245  0.698243  0.950522  1
  O  O8  1  0.192872  0.208652  0.949233  1
  O  O9  1  0.307128  0.708652  0.550767  1
  O  O10  1  0.807128  0.791348  0.050767  1
  O  O11  1  0.692872  0.291348  0.449233  1
  Zn  Zn12  1  0.500000  0.000000  0.000000  1
  Zn  Zn13  1  0.000000  0.500000  0.500000  1
  Rh  Rh14  1  0.000000  0.500000  0.000000  1
  Rh  Rh15  1  0.500000  0.000000  0.500000  1
  La  La16  1  0.013600  0.942759  0.749211  1
  La  La17  1  0.486400  0.442758  0.750789  1
  La  La18  1  0.986400  0.057242  0.250789  1
  La  La19  1  0.513600  0.557241  0.249211  1
