# generated using pymatgen
data_La2Zr2O7
_symmetry_space_group_name_H-M   'P 1'
_cell_length_a   7.60194391
_cell_length_b   7.60194433
_cell_length_c   7.60194377
_cell_angle_alpha   59.99999830
_cell_angle_beta   59.99999645
_cell_angle_gamma   59.99999956
_symmetry_Int_Tables_number   1
_chemical_formula_structural   La2Zr2O7
_chemical_formula_sum   'La4 Zr4 O14'
_cell_volume   310.64114746
_cell_formula_units_Z   2
loop_
 _symmetry_equiv_pos_site_id
 _symmetry_equiv_pos_as_xyz
  1  'x, y, z'
loop_
 _atom_site_type_symbol
 _atom_site_label
 _atom_site_symmetry_multiplicity
 _atom_site_fract_x
 _atom_site_fract_y
 _atom_site_fract_z
 _atom_site_occupancy
  La  La0  1  0.500000  0.000000  0.500000  1
  La  La1  1  0.500000  0.500000  0.500000  1
  La  La2  1  0.500000  0.500000  0.000000  1
  La  La3  1  0.000000  0.500000  0.500000  1
  Zr  Zr4  1  0.000000  0.000000  0.000000  1
  Zr  Zr5  1  0.000000  0.000000  0.500000  1
  Zr  Zr6  1  0.500000  0.000000  0.000000  1
  Zr  Zr7  1  0.000000  0.500000  0.000000  1
  O  O8  1  0.366650  0.366650  0.883350  1
  O  O9  1  0.116650  0.116650  0.633350  1
  O  O10  1  0.366650  0.883350  0.366650  1
  O  O11  1  0.883350  0.366650  0.883350  1
  O  O12  1  0.116650  0.633350  0.116650  1
  O  O13  1  0.883350  0.883350  0.366650  1
  O  O14  1  0.125000  0.125000  0.125000  1
  O  O15  1  0.633350  0.116650  0.633350  1
  O  O16  1  0.366650  0.883350  0.883350  1
  O  O17  1  0.633350  0.116650  0.116650  1
  O  O18  1  0.633350  0.633350  0.116650  1
  O  O19  1  0.116650  0.633350  0.633350  1
  O  O20  1  0.875000  0.875000  0.875000  1
  O  O21  1  0.883350  0.366650  0.366650  1
