# generated using pymatgen
data_La5FeRe3O16
_symmetry_space_group_name_H-M   'P 1'
_cell_length_a   5.68726997
_cell_length_b   5.69110825
_cell_length_c   10.28165875
_cell_angle_alpha   86.59190746
_cell_angle_beta   93.79839510
_cell_angle_gamma   89.53310324
_symmetry_Int_Tables_number   1
_chemical_formula_structural   La5FeRe3O16
_chemical_formula_sum   'La5 Fe1 Re3 O16'
_cell_volume   331.44241748
_cell_formula_units_Z   1
loop_
 _symmetry_equiv_pos_site_id
 _symmetry_equiv_pos_as_xyz
  1  'x, y, z'
loop_
 _atom_site_type_symbol
 _atom_site_label
 _atom_site_symmetry_multiplicity
 _atom_site_fract_x
 _atom_site_fract_y
 _atom_site_fract_z
 _atom_site_occupancy
  La  La0  1  0.025128  0.486597  0.200055  1
  La  La1  1  0.974872  0.513403  0.799945  1
  La  La2  1  0.506693  0.966614  0.206986  1
  La  La3  1  0.493307  0.033386  0.793014  1
  La  La4  1  0.000000  0.000000  0.500000  1
  Fe  Fe5  1  0.500000  0.500000  0.000000  1
  Re  Re6  1  0.445417  0.555114  0.605927  1
  Re  Re7  1  0.554583  0.444886  0.394073  1
  Re  Re8  1  0.000000  0.000000  0.000000  1
  O  O9  1  0.306314  0.690042  0.434675  1
  O  O10  1  0.693686  0.309958  0.565325  1
  O  O11  1  0.221019  0.776399  0.675385  1
  O  O12  1  0.778981  0.223601  0.324615  1
  O  O13  1  0.548432  0.453830  0.799566  1
  O  O14  1  0.451568  0.546170  0.200434  1
  O  O15  1  0.922344  0.075120  0.816935  1
  O  O16  1  0.077656  0.924880  0.183065  1
  O  O17  1  0.227388  0.298554  0.635976  1
  O  O18  1  0.772612  0.701446  0.364024  1
  O  O19  1  0.697502  0.777539  0.635435  1
  O  O20  1  0.302498  0.222461  0.364565  1
  O  O21  1  0.808280  0.702162  0.996243  1
  O  O22  1  0.191720  0.297838  0.003757  1
  O  O23  1  0.717492  0.180943  0.037689  1
  O  O24  1  0.282508  0.819057  0.962311  1
