# generated using pymatgen
data_La5Mn5O18
_symmetry_space_group_name_H-M   'P 1'
_cell_length_a   5.40968591
_cell_length_b   16.30297741
_cell_length_c   14.34155966
_cell_angle_alpha   19.27922191
_cell_angle_beta   56.54345041
_cell_angle_gamma   60.99542952
_symmetry_Int_Tables_number   1
_chemical_formula_structural   La5Mn5O18
_chemical_formula_sum   'La5 Mn5 O18'
_cell_volume   345.51083818
_cell_formula_units_Z   1
loop_
 _symmetry_equiv_pos_site_id
 _symmetry_equiv_pos_as_xyz
  1  'x, y, z'
loop_
 _atom_site_type_symbol
 _atom_site_label
 _atom_site_symmetry_multiplicity
 _atom_site_fract_x
 _atom_site_fract_y
 _atom_site_fract_z
 _atom_site_occupancy
  La  La0  1  0.232498  0.573524  0.270390  1
  La  La1  1  0.741884  0.076622  0.762018  1
  La  La2  1  0.266372  0.921474  0.233797  1
  La  La3  1  0.758435  0.418722  0.743179  1
  La  La4  1  0.749656  0.750501  0.749359  1
  Mn  Mn5  1  0.994017  0.324876  0.014275  1
  Mn  Mn6  1  0.007923  0.672234  0.988242  1
  Mn  Mn7  1  0.503894  0.172916  0.489934  1
  Mn  Mn8  1  0.499282  0.498004  0.502213  1
  Mn  Mn9  1  0.492810  0.823746  0.513778  1
  O  O10  1  0.304102  0.112486  0.193239  1
  O  O11  1  0.811608  0.067623  0.243736  1
  O  O12  1  0.303950  0.465017  0.191316  1
  O  O13  1  0.756088  0.193093  0.304100  1
  O  O14  1  0.274076  0.131434  0.689224  1
  O  O15  1  0.789453  0.409919  0.242609  1
  O  O16  1  0.209495  0.275270  0.740383  1
  O  O17  1  0.307276  0.772340  0.210507  1
  O  O18  1  0.748821  0.530098  0.303059  1
  O  O19  1  0.247549  0.465019  0.702214  1
  O  O20  1  0.703328  0.232069  0.781098  1
  O  O21  1  0.780775  0.725721  0.262907  1
  O  O22  1  0.193427  0.616311  0.727669  1
  O  O23  1  0.728258  0.861921  0.317521  1
  O  O24  1  0.244969  0.803671  0.698967  1
  O  O25  1  0.716061  0.561780  0.785353  1
  O  O26  1  0.193527  0.916195  0.778224  1
  O  O27  1  0.690463  0.877415  0.810687  1
