# generated using pymatgen
data_La5Ta22O62
_symmetry_space_group_name_H-M   'P 1'
_cell_length_a   12.37672797
_cell_length_b   12.97897473
_cell_length_c   7.81341525
_cell_angle_alpha   72.48215924
_cell_angle_beta   90.00000000
_cell_angle_gamma   91.75669789
_symmetry_Int_Tables_number   1
_chemical_formula_structural   La5Ta22O62
_chemical_formula_sum   'La5 Ta22 O62'
_cell_volume   1196.29825070
_cell_formula_units_Z   1
loop_
 _symmetry_equiv_pos_site_id
 _symmetry_equiv_pos_as_xyz
  1  'x, y, z'
loop_
 _atom_site_type_symbol
 _atom_site_label
 _atom_site_symmetry_multiplicity
 _atom_site_fract_x
 _atom_site_fract_y
 _atom_site_fract_z
 _atom_site_occupancy
  La  La0  1  0.830155  0.830225  0.834887  1
  La  La1  1  0.509662  0.509712  0.495144  1
  La  La2  1  0.508623  0.508629  0.995685  1
  La  La3  1  0.164194  0.164129  0.167935  1
  La  La4  1  0.164713  0.164730  0.667635  1
  Ta  Ta5  1  0.787027  0.580131  0.212479  1
  Ta  Ta6  1  0.787027  0.580131  0.707389  1
  Ta  Ta7  1  0.580142  0.787092  0.108997  1
  Ta  Ta8  1  0.580142  0.787092  0.603910  1
  Ta  Ta9  1  0.932135  0.299863  0.849938  1
  Ta  Ta10  1  0.299825  0.932074  0.534188  1
  Ta  Ta11  1  0.299825  0.932074  0.033738  1
  Ta  Ta12  1  0.932135  0.299863  0.350200  1
  Ta  Ta13  1  0.668350  0.332989  0.833610  1
  Ta  Ta14  1  0.333029  0.668346  0.666073  1
  Ta  Ta15  1  0.333029  0.668346  0.165581  1
  Ta  Ta16  1  0.668350  0.332989  0.333401  1
  Ta  Ta17  1  0.702040  0.067784  0.464928  1
  Ta  Ta18  1  0.702040  0.067784  0.967289  1
  Ta  Ta19  1  0.067731  0.702022  0.150174  1
  Ta  Ta20  1  0.067731  0.702022  0.647804  1
  Ta  Ta21  1  0.424715  0.214916  0.392612  1
  Ta  Ta22  1  0.424715  0.214916  0.892473  1
  Ta  Ta23  1  0.214946  0.424780  0.787667  1
  Ta  Ta24  1  0.214946  0.424780  0.287555  1
  Ta  Ta25  1  0.997080  0.997088  0.003415  1
  Ta  Ta26  1  0.997080  0.997088  0.499496  1
  O  O27  1  0.840586  0.990353  0.991952  1
  O  O28  1  0.990348  0.840545  0.592401  1
  O  O29  1  0.840586  0.990353  0.517696  1
  O  O30  1  0.990348  0.840545  0.067054  1
  O  O31  1  0.939194  0.611324  0.195071  1
  O  O32  1  0.611364  0.939230  0.031152  1
  O  O33  1  0.939194  0.611324  0.693605  1
  O  O34  1  0.611364  0.939230  0.529618  1
  O  O35  1  0.732184  0.732171  0.644128  1
  O  O36  1  0.732184  0.732171  0.123699  1
  O  O37  1  0.772078  0.584369  0.457816  1
  O  O38  1  0.591458  0.781044  0.859479  1
  O  O39  1  0.584449  0.772079  0.363960  1
  O  O40  1  0.780963  0.591313  0.954343  1
  O  O41  1  0.820963  0.415705  0.291641  1
  O  O42  1  0.415727  0.821039  0.089056  1
  O  O43  1  0.820963  0.415705  0.792654  1
  O  O44  1  0.415727  0.821039  0.589906  1
  O  O45  1  0.289922  0.937484  0.281259  1
  O  O46  1  0.937283  0.290655  0.604672  1
  O  O47  1  0.937534  0.289778  0.105111  1
  O  O48  1  0.290556  0.937386  0.781308  1
  O  O49  1  0.642844  0.498894  0.753196  1
  O  O50  1  0.642844  0.498894  0.247910  1
  O  O51  1  0.498870  0.642920  0.681171  1
  O  O52  1  0.498870  0.642920  0.175910  1
  O  O53  1  0.217302  0.783529  0.107457  1
  O  O54  1  0.783504  0.217292  0.392188  1
  O  O55  1  0.783504  0.217292  0.890520  1
  O  O56  1  0.657263  0.343858  0.078071  1
  O  O57  1  0.344671  0.657208  0.421396  1
  O  O58  1  0.217302  0.783529  0.609015  1
  O  O59  1  0.657245  0.344885  0.577558  1
  O  O60  1  0.343980  0.657216  0.921392  1
  O  O61  1  0.501733  0.357778  0.321447  1
  O  O62  1  0.501733  0.357778  0.820776  1
  O  O63  1  0.357846  0.501670  0.249444  1
  O  O64  1  0.357846  0.501670  0.748887  1
  O  O65  1  0.064595  0.704612  0.897694  1
  O  O66  1  0.069901  0.707056  0.396473  1
  O  O67  1  0.704639  0.064552  0.717724  1
  O  O68  1  0.707224  0.069829  0.215085  1
  O  O69  1  0.179920  0.583671  0.207570  1
  O  O70  1  0.583664  0.179842  0.909458  1
  O  O71  1  0.583664  0.179842  0.410700  1
  O  O72  1  0.179920  0.583671  0.708758  1
  O  O73  1  0.219592  0.402930  0.048535  1
  O  O74  1  0.403011  0.219659  0.140171  1
  O  O75  1  0.402702  0.219552  0.640224  1
  O  O76  1  0.219436  0.402903  0.548549  1
  O  O77  1  0.260167  0.260184  0.370010  1
  O  O78  1  0.260167  0.260184  0.869805  1
  O  O79  1  0.388576  0.062002  0.468910  1
  O  O80  1  0.061954  0.388651  0.805630  1
  O  O81  1  0.388576  0.062002  0.969088  1
  O  O82  1  0.061954  0.388651  0.305719  1
  O  O83  1  0.021165  0.164078  0.419280  1
  O  O84  1  0.164055  0.021165  0.988097  1
  O  O85  1  0.021165  0.164078  0.916641  1
  O  O86  1  0.164055  0.021165  0.490738  1
  O  O87  1  0.009204  0.009120  0.245440  1
  O  O88  1  0.004297  0.004145  0.747928  1
