# generated using pymatgen
data_La3Ag
_symmetry_space_group_name_H-M   'P 1'
_cell_length_a   7.25692227
_cell_length_b   7.25558498
_cell_length_c   5.43059008
_cell_angle_alpha   89.98825226
_cell_angle_beta   90.01328304
_cell_angle_gamma   119.99080522
_symmetry_Int_Tables_number   1
_chemical_formula_structural   La3Ag
_chemical_formula_sum   'La6 Ag2'
_cell_volume   247.65253374
_cell_formula_units_Z   2
loop_
 _symmetry_equiv_pos_site_id
 _symmetry_equiv_pos_as_xyz
  1  'x, y, z'
loop_
 _atom_site_type_symbol
 _atom_site_label
 _atom_site_symmetry_multiplicity
 _atom_site_fract_x
 _atom_site_fract_y
 _atom_site_fract_z
 _atom_site_occupancy
  La  La0  1  0.176890  0.353691  0.249995  1
  La  La1  1  0.646282  0.823125  0.250004  1
  La  La2  1  0.176914  0.823165  0.250021  1
  La  La3  1  0.823165  0.646300  0.750001  1
  La  La4  1  0.353642  0.176809  0.749974  1
  La  La5  1  0.823136  0.176889  0.750000  1
  Ag  Ag6  1  0.333326  0.666673  0.750004  1
  Ag  Ag7  1  0.666644  0.333348  0.249997  1
