# generated using pymatgen
data_La(Mo4O7)2
_symmetry_space_group_name_H-M   'P 1'
_cell_length_a   8.30067572
_cell_length_b   8.27943602
_cell_length_c   28.86327989
_cell_angle_alpha   90.92722311
_cell_angle_beta   90.83967776
_cell_angle_gamma   97.72337085
_symmetry_Int_Tables_number   1
_chemical_formula_structural   La(Mo4O7)2
_chemical_formula_sum   'La6 Mo48 O84'
_cell_volume   1965.09095521
_cell_formula_units_Z   6
loop_
 _symmetry_equiv_pos_site_id
 _symmetry_equiv_pos_as_xyz
  1  'x, y, z'
loop_
 _atom_site_type_symbol
 _atom_site_label
 _atom_site_symmetry_multiplicity
 _atom_site_fract_x
 _atom_site_fract_y
 _atom_site_fract_z
 _atom_site_occupancy
  La  La0  1  0.096332  0.917079  0.993645  1
  La  La1  1  0.119621  0.940791  0.329796  1
  La  La2  1  0.052629  0.882871  0.664655  1
  La  La3  1  0.411825  0.427941  0.183195  1
  La  La4  1  0.427291  0.415782  0.514480  1
  La  La5  1  0.414944  0.426658  0.848287  1
  Mo  Mo6  1  0.039313  0.804247  0.120432  1
  Mo  Mo7  1  0.040355  0.805977  0.454325  1
  Mo  Mo8  1  0.042489  0.805497  0.787902  1
  Mo  Mo9  1  0.207967  0.948343  0.212509  1
  Mo  Mo10  1  0.201892  0.961829  0.546265  1
  Mo  Mo11  1  0.204106  0.960233  0.878842  1
  Mo  Mo12  1  0.165524  0.180287  0.119549  1
  Mo  Mo13  1  0.165704  0.179303  0.452414  1
  Mo  Mo14  1  0.168308  0.177430  0.785111  1
  Mo  Mo15  1  0.296679  0.552915  0.050383  1
  Mo  Mo16  1  0.296818  0.555011  0.384002  1
  Mo  Mo17  1  0.296489  0.555809  0.716799  1
  Mo  Mo18  1  0.421233  0.920695  0.123333  1
  Mo  Mo19  1  0.425274  0.919050  0.456582  1
  Mo  Mo20  1  0.425781  0.919025  0.789946  1
  Mo  Mo21  1  0.310990  0.327629  0.292074  1
  Mo  Mo22  1  0.303464  0.328760  0.626015  1
  Mo  Mo23  1  0.315411  0.327181  0.958377  1
  Mo  Mo24  1  0.438844  0.710099  0.620184  1
  Mo  Mo25  1  0.439168  0.703907  0.287924  1
  Mo  Mo26  1  0.439758  0.706123  0.952533  1
  Mo  Mo27  1  0.535816  0.287484  0.048488  1
  Mo  Mo28  1  0.535499  0.291061  0.382304  1
  Mo  Mo29  1  0.539108  0.291881  0.715455  1
  Mo  Mo30  1  0.582226  0.077257  0.288580  1
  Mo  Mo31  1  0.582393  0.077769  0.954141  1
  Mo  Mo32  1  0.582228  0.080851  0.619505  1
  Mo  Mo33  1  0.674095  0.696446  0.042625  1
  Mo  Mo34  1  0.672913  0.695535  0.710665  1
  Mo  Mo35  1  0.674851  0.695422  0.377201  1
  Mo  Mo36  1  0.715897  0.467370  0.279769  1
  Mo  Mo37  1  0.704714  0.470545  0.948890  1
  Mo  Mo38  1  0.702013  0.472758  0.615393  1
  Mo  Mo39  1  0.813606  0.829720  0.210211  1
  Mo  Mo40  1  0.811401  0.825432  0.543118  1
  Mo  Mo41  1  0.812158  0.824736  0.876782  1
  Mo  Mo42  1  0.787824  0.054963  0.121053  1
  Mo  Mo43  1  0.787779  0.055421  0.453049  1
  Mo  Mo44  1  0.789880  0.055619  0.785838  1
  Mo  Mo45  1  0.921521  0.418938  0.033415  1
  Mo  Mo46  1  0.926042  0.422454  0.366274  1
  Mo  Mo47  1  0.921133  0.417685  0.699682  1
  Mo  Mo48  1  0.905999  0.439317  0.133907  1
  Mo  Mo49  1  0.910009  0.439549  0.467014  1
  Mo  Mo50  1  0.911807  0.438086  0.800504  1
  Mo  Mo51  1  0.950787  0.211254  0.217455  1
  Mo  Mo52  1  0.949589  0.220020  0.887686  1
  Mo  Mo53  1  0.946369  0.222115  0.553047  1
  O  O54  1  0.028765  0.833510  0.249340  1
  O  O55  1  0.010318  0.828062  0.584987  1
  O  O56  1  0.014337  0.829508  0.918775  1
  O  O57  1  0.069702  0.582664  0.083228  1
  O  O58  1  0.069333  0.582673  0.416625  1
  O  O59  1  0.068227  0.584239  0.749038  1
  O  O60  1  0.155043  0.391032  0.009725  1
  O  O61  1  0.135787  0.383485  0.340911  1
  O  O62  1  0.147600  0.383843  0.671718  1
  O  O63  1  0.113759  0.359484  0.169919  1
  O  O64  1  0.108562  0.350549  0.504470  1
  O  O65  1  0.112011  0.351682  0.837778  1
  O  O66  1  0.206620  0.963897  0.081599  1
  O  O67  1  0.208220  0.963513  0.413681  1
  O  O68  1  0.208987  0.961067  0.747184  1
  O  O69  1  0.153307  0.143664  0.257815  1
  O  O70  1  0.139043  0.146440  0.927325  1
  O  O71  1  0.137776  0.152754  0.593078  1
  O  O72  1  0.264098  0.725052  -0.000301  1
  O  O73  1  0.261242  0.731021  0.332123  1
  O  O74  1  0.260966  0.731374  0.664210  1
  O  O75  1  0.243773  0.774685  0.164689  1
  O  O76  1  0.244286  0.781680  0.497001  1
  O  O77  1  0.247048  0.779483  0.829983  1
  O  O78  1  0.318066  0.518007  0.582378  1
  O  O79  1  0.307733  0.530487  0.248298  1
  O  O80  1  0.310140  0.529927  0.914306  1
  O  O81  1  0.350455  0.364135  0.093594  1
  O  O82  1  0.354706  0.360312  0.428778  1
  O  O83  1  0.355300  0.361781  0.761116  1
  O  O84  1  0.409687  0.926841  0.587020  1
  O  O85  1  0.406696  0.910992  0.251487  1
  O  O86  1  0.406382  0.924558  0.921040  1
  O  O87  1  0.389536  0.132672  0.997901  1
  O  O88  1  0.379183  0.135924  0.333185  1
  O  O89  1  0.395690  0.150919  0.662162  1
  O  O90  1  0.340875  0.119656  0.168758  1
  O  O91  1  0.348631  0.122673  0.498888  1
  O  O92  1  0.350787  0.122135  0.832075  1
  O  O93  1  0.460358  0.715385  0.083022  1
  O  O94  1  0.475454  0.708448  0.420719  1
  O  O95  1  0.474114  0.708594  0.753997  1
  O  O96  1  0.523208  0.296863  0.250784  1
  O  O97  1  0.523575  0.288398  0.916320  1
  O  O98  1  0.518828  0.290580  0.583790  1
  O  O99  1  0.649391  0.900504  0.160993  1
  O  O100  1  0.651963  0.897581  0.829684  1
  O  O101  1  0.650891  0.902462  0.496073  1
  O  O102  1  0.606736  0.851314  0.323554  1
  O  O103  1  0.608679  0.857716  0.655500  1
  O  O104  1  0.606332  0.856181  0.989199  1
  O  O105  1  0.583407  0.082639  0.084406  1
  O  O106  1  0.590145  0.086333  0.417560  1
  O  O107  1  0.592436  0.087587  0.751705  1
  O  O108  1  0.634190  0.648121  0.241012  1
  O  O109  1  0.630886  0.655201  0.906448  1
  O  O110  1  0.629179  0.656385  0.572652  1
  O  O111  1  0.722390  0.471878  0.079414  1
  O  O112  1  0.730170  0.468020  0.412129  1
  O  O113  1  0.726745  0.471922  0.746037  1
  O  O114  1  0.765592  0.247140  0.167257  1
  O  O115  1  0.780320  0.241114  0.834719  1
  O  O116  1  0.770021  0.247710  0.501026  1
  O  O117  1  0.721234  0.265398  0.996249  1
  O  O118  1  0.722647  0.280377  0.329572  1
  O  O119  1  0.720699  0.267884  0.662012  1
  O  O120  1  0.846700  0.873129  0.077885  1
  O  O121  1  0.855406  0.873524  0.740885  1
  O  O122  1  0.849269  0.873779  0.409664  1
  O  O123  1  0.878940  0.662536  0.165813  1
  O  O124  1  0.879627  0.662164  0.498983  1
  O  O125  1  0.882914  0.661338  0.832869  1
  O  O126  1  0.783415  0.030354  0.248566  1
  O  O127  1  0.779680  0.041964  0.583504  1
  O  O128  1  0.779727  0.040495  0.917756  1
  O  O129  1  0.859837  0.612063  0.332012  1
  O  O130  1  0.860004  0.629150  0.663862  1
  O  O131  1  0.857581  0.626049  0.997902  1
  O  O132  1  0.906321  0.413320  0.253901  1
  O  O133  1  0.907142  0.408023  0.586577  1
  O  O134  1  0.911682  0.406190  0.920414  1
  O  O135  1  0.945236  0.233148  0.086094  1
  O  O136  1  0.945159  0.240621  0.417739  1
  O  O137  1  0.950527  0.238776  0.751646  1
