# generated using pymatgen
data_La3ReO8
_symmetry_space_group_name_H-M   'P 1'
_cell_length_a   6.32781127
_cell_length_b   7.61753044
_cell_length_c   7.60853815
_cell_angle_alpha   110.15375578
_cell_angle_beta   90.00000000
_cell_angle_gamma   90.00000000
_symmetry_Int_Tables_number   1
_chemical_formula_structural   La3ReO8
_chemical_formula_sum   'La6 Re2 O16'
_cell_volume   344.29347679
_cell_formula_units_Z   2
loop_
 _symmetry_equiv_pos_site_id
 _symmetry_equiv_pos_as_xyz
  1  'x, y, z'
loop_
 _atom_site_type_symbol
 _atom_site_label
 _atom_site_symmetry_multiplicity
 _atom_site_fract_x
 _atom_site_fract_y
 _atom_site_fract_z
 _atom_site_occupancy
  Re  Re0  1  0.750000  0.178476  0.815924  1
  Re  Re1  1  0.250000  0.821524  0.184076  1
  La  La2  1  0.250000  0.341222  0.107637  1
  La  La3  1  0.750000  0.658778  0.892363  1
  La  La4  1  0.750000  0.602867  0.400178  1
  La  La5  1  0.250000  0.397133  0.599822  1
  La  La6  1  0.750000  0.108255  0.333329  1
  La  La7  1  0.250000  0.891745  0.666671  1
  O  O8  1  0.000694  0.336432  0.334754  1
  O  O9  1  0.500694  0.663568  0.665246  1
  O  O10  1  0.999306  0.663568  0.665246  1
  O  O11  1  0.499306  0.336432  0.334754  1
  O  O12  1  0.048143  0.194488  0.805226  1
  O  O13  1  0.548143  0.805512  0.194774  1
  O  O14  1  0.951857  0.805512  0.194774  1
  O  O15  1  0.451857  0.194488  0.805226  1
  O  O16  1  0.250000  0.595734  0.970863  1
  O  O17  1  0.750000  0.404266  0.029137  1
  O  O18  1  0.250000  0.664597  0.340817  1
  O  O19  1  0.750000  0.335403  0.659183  1
  O  O20  1  0.250000  0.031522  0.411925  1
  O  O21  1  0.750000  0.968478  0.588075  1
  O  O22  1  0.250000  0.972807  0.039499  1
  O  O23  1  0.750000  0.027193  0.960501  1
