# generated using pymatgen
data_LaRh3
_symmetry_space_group_name_H-M   'P 1'
_cell_length_a   5.37741383
_cell_length_b   5.37682425
_cell_length_c   17.84595636
_cell_angle_alpha   89.99974804
_cell_angle_beta   89.99624126
_cell_angle_gamma   120.00383447
_symmetry_Int_Tables_number   1
_chemical_formula_structural   LaRh3
_chemical_formula_sum   'La6 Rh18'
_cell_volume   446.84096009
_cell_formula_units_Z   6
loop_
 _symmetry_equiv_pos_site_id
 _symmetry_equiv_pos_as_xyz
  1  'x, y, z'
loop_
 _atom_site_type_symbol
 _atom_site_label
 _atom_site_symmetry_multiplicity
 _atom_site_fract_x
 _atom_site_fract_y
 _atom_site_fract_z
 _atom_site_occupancy
  La  La0  1  0.333328  0.666684  0.541659  1
  La  La1  1  0.666685  0.333339  0.041636  1
  La  La2  1  0.666652  0.333329  0.458361  1
  La  La3  1  0.333334  0.666663  0.958325  1
  La  La4  1  0.333333  0.666676  0.750019  1
  La  La5  1  0.666675  0.333328  0.249995  1
  Rh  Rh6  1  0.166684  0.333321  0.127497  1
  Rh  Rh7  1  0.833307  0.666668  0.627513  1
  Rh  Rh8  1  0.666687  0.833323  0.127498  1
  Rh  Rh9  1  0.166676  0.833310  0.127479  1
  Rh  Rh10  1  0.833323  0.166697  0.627510  1
  Rh  Rh11  1  0.333376  0.166714  0.627504  1
  Rh  Rh12  1  0.833296  0.666628  0.872521  1
  Rh  Rh13  1  0.833321  0.166665  0.872507  1
  Rh  Rh14  1  0.333316  0.166670  0.872501  1
  Rh  Rh15  1  0.666614  0.833307  0.372502  1
  Rh  Rh16  1  0.166651  0.833320  0.372495  1
  Rh  Rh17  1  0.166668  0.333345  0.372490  1
  Rh  Rh18  1  0.000011  0.999975  0.249998  1
  Rh  Rh19  1  0.999973  0.000010  0.749993  1
  Rh  Rh20  1  0.333314  0.666697  0.250001  1
  Rh  Rh21  1  0.666697  0.333313  0.749985  1
  Rh  Rh22  1  0.000009  0.000007  0.000008  1
  Rh  Rh23  1  0.999968  0.000002  0.500006  1
