# generated using pymatgen
data_La3RuO7
_symmetry_space_group_name_H-M   'P 1'
_cell_length_a   6.74626951
_cell_length_b   6.74626951
_cell_length_c   7.70202160
_cell_angle_alpha   90.00000000
_cell_angle_beta   90.00000000
_cell_angle_gamma   112.19003130
_symmetry_Int_Tables_number   1
_chemical_formula_structural   La3RuO7
_chemical_formula_sum   'La6 Ru2 O14'
_cell_volume   324.57362149
_cell_formula_units_Z   2
loop_
 _symmetry_equiv_pos_site_id
 _symmetry_equiv_pos_as_xyz
  1  'x, y, z'
loop_
 _atom_site_type_symbol
 _atom_site_label
 _atom_site_symmetry_multiplicity
 _atom_site_fract_x
 _atom_site_fract_y
 _atom_site_fract_z
 _atom_site_occupancy
  O  O0  1  0.579374  0.579374  0.750000  1
  O  O1  1  0.420626  0.420626  0.250000  1
  O  O2  1  0.100624  0.839579  0.750000  1
  O  O3  1  0.899376  0.160421  0.250000  1
  O  O4  1  0.839579  0.100624  0.750000  1
  O  O5  1  0.160421  0.899376  0.250000  1
  O  O6  1  0.192147  0.441082  0.960205  1
  O  O7  1  0.807853  0.558918  0.460205  1
  O  O8  1  0.441082  0.192147  0.960205  1
  O  O9  1  0.558918  0.807853  0.460205  1
  O  O10  1  0.192147  0.441082  0.539795  1
  O  O11  1  0.807853  0.558918  0.039795  1
  O  O12  1  0.558918  0.807853  0.039795  1
  O  O13  1  0.441082  0.192147  0.539795  1
  Ru  Ru14  1  0.500000  0.500000  0.500000  1
  Ru  Ru15  1  0.500000  0.500000  0.000000  1
  La  La16  1  0.908990  0.467547  0.750000  1
  La  La17  1  0.091010  0.532453  0.250000  1
  La  La18  1  0.467547  0.908990  0.750000  1
  La  La19  1  0.532453  0.091010  0.250000  1
  La  La20  1  0.000000  0.000000  0.500000  1
  La  La21  1  0.000000  0.000000  0.000000  1
