# generated using pymatgen
data_La7Mn8O23
_symmetry_space_group_name_H-M   'P 1'
_cell_length_a   5.56140935
_cell_length_b   7.89487631
_cell_length_c   11.12010577
_cell_angle_alpha   90.00000000
_cell_angle_beta   89.91908083
_cell_angle_gamma   90.00000000
_symmetry_Int_Tables_number   1
_chemical_formula_structural   La7Mn8O23
_chemical_formula_sum   'La7 Mn8 O23'
_cell_volume   488.24598140
_cell_formula_units_Z   1
loop_
 _symmetry_equiv_pos_site_id
 _symmetry_equiv_pos_as_xyz
  1  'x, y, z'
loop_
 _atom_site_type_symbol
 _atom_site_label
 _atom_site_symmetry_multiplicity
 _atom_site_fract_x
 _atom_site_fract_y
 _atom_site_fract_z
 _atom_site_occupancy
  La  La0  1  0.030485  0.250000  0.495298  1
  La  La1  1  0.028238  0.250000  0.999564  1
  La  La2  1  0.468395  0.750000  0.745078  1
  La  La3  1  0.529184  0.250000  0.752839  1
  La  La4  1  0.531932  0.250000  0.252693  1
  La  La5  1  0.957564  0.750000  0.507141  1
  La  La6  1  0.966654  0.750000  0.007339  1
  Mn  Mn7  1  0.006856  0.002652  0.247054  1
  Mn  Mn8  1  0.006856  0.497347  0.247054  1
  Mn  Mn9  1  0.999836  0.000758  0.751197  1
  Mn  Mn10  1  0.999836  0.499242  0.751197  1
  Mn  Mn11  1  0.501811  0.994804  0.006261  1
  Mn  Mn12  1  0.497336  0.994546  0.494823  1
  Mn  Mn13  1  0.501811  0.505196  0.006261  1
  Mn  Mn14  1  0.497336  0.505454  0.494823  1
  O  O15  1  0.009264  0.750000  0.783505  1
  O  O16  1  0.205654  0.527407  0.103795  1
  O  O17  1  0.214363  0.535517  0.608675  1
  O  O18  1  0.205654  0.972593  0.103795  1
  O  O19  1  0.214363  0.964483  0.608675  1
  O  O20  1  0.270765  0.455990  0.362104  1
  O  O21  1  0.270765  0.044010  0.362104  1
  O  O22  1  0.284987  0.464044  0.858965  1
  O  O23  1  0.284987  0.035956  0.858965  1
  O  O24  1  0.490088  0.250000  0.037125  1
  O  O25  1  0.496871  0.250000  0.529968  1
  O  O26  1  0.514417  0.750000  0.961456  1
  O  O27  1  0.512494  0.750000  0.481159  1
  O  O28  1  0.718048  0.964513  0.639778  1
  O  O29  1  0.737822  0.966419  0.137988  1
  O  O30  1  0.718048  0.535487  0.639778  1
  O  O31  1  0.737822  0.533581  0.137988  1
  O  O32  1  0.794796  0.023648  0.391255  1
  O  O33  1  0.794796  0.476352  0.391255  1
  O  O34  1  0.777301  0.038100  0.889327  1
  O  O35  1  0.777301  0.461900  0.889327  1
  O  O36  1  0.982244  0.250000  0.216412  1
  O  O37  1  0.991144  0.250000  0.716565  1
