# generated using pymatgen
data_La7Ni16
_symmetry_space_group_name_H-M   'P 1'
_cell_length_a   7.33410908
_cell_length_b   7.33410927
_cell_length_c   8.88980151
_cell_angle_alpha   114.36205676
_cell_angle_beta   114.36205743
_cell_angle_gamma   89.99999966
_symmetry_Int_Tables_number   1
_chemical_formula_structural   La7Ni16
_chemical_formula_sum   'La7 Ni16'
_cell_volume   388.37856265
_cell_formula_units_Z   1
loop_
 _symmetry_equiv_pos_site_id
 _symmetry_equiv_pos_as_xyz
  1  'x, y, z'
loop_
 _atom_site_type_symbol
 _atom_site_label
 _atom_site_symmetry_multiplicity
 _atom_site_fract_x
 _atom_site_fract_y
 _atom_site_fract_z
 _atom_site_occupancy
  La  La0  1  0.592916  0.202259  0.795175  1
  La  La1  1  0.202259  0.592916  0.795175  1
  La  La2  1  0.407084  0.407084  0.204825  1
  La  La3  1  0.250000  0.750000  0.500000  1
  La  La4  1  0.000000  0.000000  0.000000  1
  La  La5  1  0.797741  0.797741  0.204825  1
  La  La6  1  0.750000  0.250000  0.500000  1
  Ni  Ni7  1  0.931875  0.931875  0.627675  1
  Ni  Ni8  1  0.182153  0.698459  0.131934  1
  Ni  Ni9  1  0.433476  0.949781  0.131934  1
  Ni  Ni10  1  0.695800  0.695800  0.627675  1
  Ni  Ni11  1  0.817847  0.566524  0.868066  1
  Ni  Ni12  1  0.441294  0.441294  0.602725  1
  Ni  Ni13  1  0.304200  0.068125  0.372325  1
  Ni  Ni14  1  0.566524  0.817847  0.868066  1
  Ni  Ni15  1  0.558706  0.838568  0.397275  1
  Ni  Ni16  1  0.161432  0.161432  0.602725  1
  Ni  Ni17  1  0.068125  0.304200  0.372325  1
  Ni  Ni18  1  0.301541  0.050219  0.868066  1
  Ni  Ni19  1  0.050219  0.301541  0.868066  1
  Ni  Ni20  1  0.698459  0.182153  0.131934  1
  Ni  Ni21  1  0.838568  0.558706  0.397275  1
  Ni  Ni22  1  0.949781  0.433476  0.131934  1
