# generated using pymatgen
data_La7Os4C9
_symmetry_space_group_name_H-M   'P 1'
_cell_length_a   5.42909002
_cell_length_b   6.60018874
_cell_length_c   11.66975970
_cell_angle_alpha   76.59012001
_cell_angle_beta   76.55417073
_cell_angle_gamma   65.71368377
_symmetry_Int_Tables_number   1
_chemical_formula_structural   La7Os4C9
_chemical_formula_sum   'La7 Os4 C9'
_cell_volume   366.30227635
_cell_formula_units_Z   1
loop_
 _symmetry_equiv_pos_site_id
 _symmetry_equiv_pos_as_xyz
  1  'x, y, z'
loop_
 _atom_site_type_symbol
 _atom_site_label
 _atom_site_symmetry_multiplicity
 _atom_site_fract_x
 _atom_site_fract_y
 _atom_site_fract_z
 _atom_site_occupancy
  La  La0  1  0.373468  0.410199  0.842894  1
  La  La1  1  0.146938  0.026974  0.679221  1
  La  La2  1  0.853062  0.973026  0.320779  1
  La  La3  1  0.137009  0.343445  0.382567  1
  La  La4  1  0.862991  0.656555  0.617433  1
  La  La5  1  0.000000  0.000000  0.000000  1
  La  La6  1  0.626532  0.589801  0.157106  1
  Os  Os7  1  0.357575  0.143558  0.141229  1
  Os  Os8  1  0.566151  0.296546  0.571211  1
  Os  Os9  1  0.433849  0.703454  0.428789  1
  Os  Os10  1  0.642425  0.856442  0.858771  1
  C  C11  1  0.384427  0.940272  0.290660  1
  C  C12  1  0.921922  0.335789  0.820227  1
  C  C13  1  0.391940  0.603483  0.612528  1
  C  C14  1  0.195918  0.463442  0.144555  1
  C  C15  1  0.804082  0.536558  0.855445  1
  C  C16  1  0.500000  0.000000  0.000000  1
  C  C17  1  0.078078  0.664211  0.179773  1
  C  C18  1  0.615573  0.059728  0.709340  1
  C  C19  1  0.608060  0.396517  0.387472  1
