# generated using pymatgen
data_La4Cu3MoO12
_symmetry_space_group_name_H-M   'P 1'
_cell_length_a   6.93994611
_cell_length_b   7.99152652
_cell_length_c   10.94717902
_cell_angle_alpha   90.00000000
_cell_angle_beta   90.00000000
_cell_angle_gamma   90.07922351
_symmetry_Int_Tables_number   1
_chemical_formula_structural   La4Cu3MoO12
_chemical_formula_sum   'La8 Cu6 Mo2 O24'
_cell_volume   607.13832477
_cell_formula_units_Z   2
loop_
 _symmetry_equiv_pos_site_id
 _symmetry_equiv_pos_as_xyz
  1  'x, y, z'
loop_
 _atom_site_type_symbol
 _atom_site_label
 _atom_site_symmetry_multiplicity
 _atom_site_fract_x
 _atom_site_fract_y
 _atom_site_fract_z
 _atom_site_occupancy
  La  La0  1  0.237550  0.630055  0.498439  1
  La  La1  1  0.751221  0.879513  0.997859  1
  La  La2  1  0.237550  0.630055  0.001561  1
  La  La3  1  0.762450  0.369945  0.998439  1
  La  La4  1  0.248779  0.120487  0.002141  1
  La  La5  1  0.248779  0.120487  0.497859  1
  La  La6  1  0.762450  0.369945  0.501561  1
  La  La7  1  0.751221  0.879513  0.502141  1
  Cu  Cu8  1  0.890195  0.090771  0.250000  1
  Cu  Cu9  1  0.115597  0.343276  0.750000  1
  Cu  Cu10  1  0.884403  0.656724  0.250000  1
  Cu  Cu11  1  0.455923  0.873316  0.250000  1
  Cu  Cu12  1  0.544077  0.126684  0.750000  1
  Cu  Cu13  1  0.109805  0.909229  0.750000  1
  Mo  Mo14  1  0.420804  0.377572  0.250000  1
  Mo  Mo15  1  0.579196  0.622428  0.750000  1
  O  O16  1  0.284575  0.576179  0.250000  1
  O  O17  1  0.419849  0.376515  0.073621  1
  O  O18  1  0.584306  0.125533  0.584439  1
  O  O19  1  0.083957  0.371759  0.917577  1
  O  O20  1  0.914974  0.122453  0.416550  1
  O  O21  1  0.916043  0.628241  0.417577  1
  O  O22  1  0.415694  0.874467  0.084439  1
  O  O23  1  0.311784  0.619742  0.750000  1
  O  O24  1  0.715425  0.423821  0.750000  1
  O  O25  1  0.085026  0.877547  0.916550  1
  O  O26  1  0.688216  0.380258  0.250000  1
  O  O27  1  0.085026  0.877547  0.583450  1
  O  O28  1  0.580151  0.623485  0.926379  1
  O  O29  1  0.710132  0.824067  0.750000  1
  O  O30  1  0.914974  0.122453  0.083450  1
  O  O31  1  0.737384  0.875007  0.250000  1
  O  O32  1  0.916043  0.628241  0.082423  1
  O  O33  1  0.419849  0.376515  0.426379  1
  O  O34  1  0.580151  0.623485  0.573621  1
  O  O35  1  0.415694  0.874467  0.415561  1
  O  O36  1  0.083957  0.371759  0.582423  1
  O  O37  1  0.584306  0.125533  0.915561  1
  O  O38  1  0.289868  0.175933  0.250000  1
  O  O39  1  0.262616  0.124993  0.750000  1
