# generated using pymatgen
data_La2Fe14C
_symmetry_space_group_name_H-M   'P 1'
_cell_length_a   8.79276779
_cell_length_b   8.79276779
_cell_length_c   12.02189301
_cell_angle_alpha   90.00000000
_cell_angle_beta   90.00000000
_cell_angle_gamma   90.00000000
_symmetry_Int_Tables_number   1
_chemical_formula_structural   La2Fe14C
_chemical_formula_sum   'La8 Fe56 C4'
_cell_volume   929.44579405
_cell_formula_units_Z   4
loop_
 _symmetry_equiv_pos_site_id
 _symmetry_equiv_pos_as_xyz
  1  'x, y, z'
loop_
 _atom_site_type_symbol
 _atom_site_label
 _atom_site_symmetry_multiplicity
 _atom_site_fract_x
 _atom_site_fract_y
 _atom_site_fract_z
 _atom_site_occupancy
  C  C0  1  0.875335  0.875335  0.000000  1
  C  C1  1  0.624665  0.375335  0.500000  1
  C  C2  1  0.375335  0.624665  0.500000  1
  C  C3  1  0.124665  0.124665  0.000000  1
  Fe  Fe4  1  0.098259  0.098259  0.712202  1
  Fe  Fe5  1  0.901741  0.901741  0.712202  1
  Fe  Fe6  1  0.098259  0.098259  0.287798  1
  Fe  Fe7  1  0.598259  0.401741  0.212202  1
  Fe  Fe8  1  0.401741  0.598259  0.212202  1
  Fe  Fe9  1  0.401741  0.598259  0.787798  1
  Fe  Fe10  1  0.598259  0.401741  0.787798  1
  Fe  Fe11  1  0.901741  0.901741  0.287798  1
  Fe  Fe12  1  0.000000  0.000000  0.894350  1
  Fe  Fe13  1  0.500000  0.500000  0.394350  1
  Fe  Fe14  1  0.500000  0.500000  0.605650  1
  Fe  Fe15  1  0.000000  0.000000  0.105650  1
  Fe  Fe16  1  0.359737  0.036274  0.321934  1
  Fe  Fe17  1  0.640263  0.963726  0.321934  1
  Fe  Fe18  1  0.036274  0.359737  0.678066  1
  Fe  Fe19  1  0.536274  0.140263  0.821934  1
  Fe  Fe20  1  0.463726  0.859737  0.821934  1
  Fe  Fe21  1  0.140263  0.536274  0.178066  1
  Fe  Fe22  1  0.859737  0.463726  0.178066  1
  Fe  Fe23  1  0.963726  0.640263  0.678066  1
  Fe  Fe24  1  0.640263  0.963726  0.678066  1
  Fe  Fe25  1  0.359737  0.036274  0.678066  1
  Fe  Fe26  1  0.963726  0.640263  0.321934  1
  Fe  Fe27  1  0.463726  0.859737  0.178066  1
  Fe  Fe28  1  0.536274  0.140263  0.178066  1
  Fe  Fe29  1  0.859737  0.463726  0.821934  1
  Fe  Fe30  1  0.140263  0.536274  0.821934  1
  Fe  Fe31  1  0.036274  0.359737  0.321934  1
  Fe  Fe32  1  0.682838  0.682838  0.745114  1
  Fe  Fe33  1  0.317162  0.317162  0.745114  1
  Fe  Fe34  1  0.682838  0.682838  0.254886  1
  Fe  Fe35  1  0.182838  0.817162  0.245114  1
  Fe  Fe36  1  0.817162  0.182838  0.245114  1
  Fe  Fe37  1  0.817162  0.182838  0.754886  1
  Fe  Fe38  1  0.182838  0.817162  0.754886  1
  Fe  Fe39  1  0.317162  0.317162  0.254886  1
  Fe  Fe40  1  0.065672  0.275292  0.120210  1
  Fe  Fe41  1  0.934328  0.724708  0.120210  1
  Fe  Fe42  1  0.275292  0.065672  0.879790  1
  Fe  Fe43  1  0.775292  0.434328  0.620210  1
  Fe  Fe44  1  0.224708  0.565672  0.620210  1
  Fe  Fe45  1  0.434328  0.775292  0.379790  1
  Fe  Fe46  1  0.565672  0.224708  0.379790  1
  Fe  Fe47  1  0.724708  0.934328  0.879790  1
  Fe  Fe48  1  0.934328  0.724708  0.879790  1
  Fe  Fe49  1  0.065672  0.275292  0.879790  1
  Fe  Fe50  1  0.724708  0.934328  0.120210  1
  Fe  Fe51  1  0.224708  0.565672  0.379790  1
  Fe  Fe52  1  0.775292  0.434328  0.379790  1
  Fe  Fe53  1  0.565672  0.224708  0.620210  1
  Fe  Fe54  1  0.434328  0.775292  0.620210  1
  Fe  Fe55  1  0.275292  0.065672  0.120210  1
  Fe  Fe56  1  0.500000  0.000000  0.000000  1
  Fe  Fe57  1  0.500000  0.000000  0.500000  1
  Fe  Fe58  1  0.000000  0.500000  0.500000  1
  Fe  Fe59  1  0.000000  0.500000  0.000000  1
  La  La60  1  0.760665  0.239335  0.000000  1
  La  La61  1  0.260665  0.260665  0.500000  1
  La  La62  1  0.739335  0.739335  0.500000  1
  La  La63  1  0.239335  0.760665  0.000000  1
  La  La64  1  0.641959  0.641959  0.000000  1
  La  La65  1  0.858041  0.141959  0.500000  1
  La  La66  1  0.141959  0.858041  0.500000  1
  La  La67  1  0.358041  0.358041  0.000000  1
