# generated using pymatgen
data_La2Hf2O7
_symmetry_space_group_name_H-M   'P 1'
_cell_length_a   8.08763115
_cell_length_b   13.81552556
_cell_length_c   5.74534131
_cell_angle_alpha   90.00000000
_cell_angle_beta   90.00000000
_cell_angle_gamma   98.46478588
_symmetry_Int_Tables_number   1
_chemical_formula_structural   La2Hf2O7
_chemical_formula_sum   'La8 Hf8 O28'
_cell_volume   634.96186887
_cell_formula_units_Z   4
loop_
 _symmetry_equiv_pos_site_id
 _symmetry_equiv_pos_as_xyz
  1  'x, y, z'
loop_
 _atom_site_type_symbol
 _atom_site_label
 _atom_site_symmetry_multiplicity
 _atom_site_fract_x
 _atom_site_fract_y
 _atom_site_fract_z
 _atom_site_occupancy
  La  La0  1  0.227877  0.904352  0.761060  1
  La  La1  1  0.143504  0.568603  0.332097  1
  La  La2  1  0.282155  0.122307  0.252157  1
  La  La3  1  0.355782  0.400880  0.774397  1
  La  La4  1  0.644218  0.599120  0.274397  1
  La  La5  1  0.717845  0.877693  0.752157  1
  La  La6  1  0.856496  0.431397  0.832097  1
  La  La7  1  0.772123  0.095648  0.261060  1
  Hf  Hf8  1  0.076559  0.317499  0.275848  1
  Hf  Hf9  1  0.030135  0.114163  0.766236  1
  Hf  Hf10  1  0.416132  0.678532  0.784141  1
  Hf  Hf11  1  0.473085  0.883746  0.266780  1
  Hf  Hf12  1  0.526915  0.116254  0.766780  1
  Hf  Hf13  1  0.583868  0.321468  0.284141  1
  Hf  Hf14  1  0.969865  0.885837  0.266236  1
  Hf  Hf15  1  0.923441  0.682501  0.775848  1
  O  O16  1  0.018374  0.179195  0.447537  1
  O  O17  1  0.085816  0.411553  0.550707  1
  O  O18  1  0.175472  0.698963  0.692698  1
  O  O19  1  0.223573  0.892885  0.336465  1
  O  O20  1  0.125786  0.431576  0.057310  1
  O  O21  1  0.047001  0.019465  0.051333  1
  O  O22  1  0.118220  0.225067  0.978282  1
  O  O23  1  0.379738  0.606162  0.082212  1
  O  O24  1  0.430339  0.821252  0.945146  1
  O  O25  1  0.325770  0.302539  0.362444  1
  O  O26  1  0.271197  0.084108  0.677448  1
  O  O27  1  0.405057  0.558147  0.575221  1
  O  O28  1  0.536700  0.980187  0.550015  1
  O  O29  1  0.505454  0.773063  0.478809  1
  O  O30  1  0.494546  0.226937  0.978809  1
  O  O31  1  0.463300  0.019813  0.050015  1
  O  O32  1  0.594943  0.441853  0.075221  1
  O  O33  1  0.728803  0.915892  0.177448  1
  O  O34  1  0.674230  0.697461  0.862444  1
  O  O35  1  0.569661  0.178748  0.445146  1
  O  O36  1  0.620262  0.393838  0.582212  1
  O  O37  1  0.881780  0.774933  0.478282  1
  O  O38  1  0.952999  0.980535  0.551333  1
  O  O39  1  0.874214  0.568424  0.557310  1
  O  O40  1  0.776427  0.107115  0.836465  1
  O  O41  1  0.824528  0.301037  0.192698  1
  O  O42  1  0.914184  0.588447  0.050707  1
  O  O43  1  0.981626  0.820805  0.947537  1
