# generated using pymatgen
data_La8Mn7O24
_symmetry_space_group_name_H-M   'P 1'
_cell_length_a   7.87100356
_cell_length_b   7.86582033
_cell_length_c   9.45134019
_cell_angle_alpha   66.65116081
_cell_angle_beta   66.71309628
_cell_angle_gamma   90.92617144
_symmetry_Int_Tables_number   1
_chemical_formula_structural   La8Mn7O24
_chemical_formula_sum   'La8 Mn7 O24'
_cell_volume   482.99097187
_cell_formula_units_Z   1
loop_
 _symmetry_equiv_pos_site_id
 _symmetry_equiv_pos_as_xyz
  1  'x, y, z'
loop_
 _atom_site_type_symbol
 _atom_site_label
 _atom_site_symmetry_multiplicity
 _atom_site_fract_x
 _atom_site_fract_y
 _atom_site_fract_z
 _atom_site_occupancy
  La  La0  1  0.384653  0.862364  0.757068  1
  La  La1  1  0.138185  0.620031  0.239752  1
  La  La2  1  0.613479  0.615735  0.234720  1
  La  La3  1  0.862872  0.859287  0.755071  1
  La  La4  1  0.861815  0.379969  0.760248  1
  La  La5  1  0.615347  0.137636  0.242932  1
  La  La6  1  0.137128  0.140713  0.244929  1
  La  La7  1  0.386521  0.384265  0.765280  1
  Mn  Mn8  1  0.000000  0.500000  0.000000  1
  Mn  Mn9  1  0.250848  0.750264  0.500031  1
  Mn  Mn10  1  0.755066  0.755722  0.488666  1
  Mn  Mn11  1  0.500000  0.000000  0.000000  1
  Mn  Mn12  1  0.749152  0.249736  0.499968  1
  Mn  Mn13  1  0.244934  0.244278  0.511334  1
  Mn  Mn14  1  0.000000  0.000000  0.000000  1
  O  O15  1  0.735066  0.947758  0.032111  1
  O  O16  1  0.343004  0.909359  0.251720  1
  O  O17  1  0.917548  0.840261  0.243799  1
  O  O18  1  0.456033  0.751509  0.024968  1
  O  O19  1  0.196556  0.979480  0.539458  1
  O  O20  1  0.518129  0.804305  0.462270  1
  O  O21  1  0.985958  0.703854  0.531791  1
  O  O22  1  0.219729  0.458557  0.031858  1
  O  O23  1  0.836919  0.405756  0.251546  1
  O  O24  1  0.052083  0.767707  0.966965  1
  O  O25  1  0.613548  0.666239  0.726529  1
  O  O26  1  0.296108  0.518093  0.466694  1
  O  O27  1  0.386452  0.333761  0.273471  1
  O  O28  1  0.703892  0.481907  0.533306  1
  O  O29  1  0.947917  0.232293  0.033035  1
  O  O30  1  0.163081  0.594244  0.748454  1
  O  O31  1  0.014042  0.296146  0.468209  1
  O  O32  1  0.780271  0.541443  0.968142  1
  O  O33  1  0.481871  0.195695  0.537730  1
  O  O34  1  0.543967  0.248491  0.975032  1
  O  O35  1  0.803444  0.020520  0.460542  1
  O  O36  1  0.082452  0.159739  0.756201  1
  O  O37  1  0.656996  0.090641  0.748280  1
  O  O38  1  0.264934  0.052242  0.967889  1
