# generated using pymatgen
data_La2Mo4O15
_symmetry_space_group_name_H-M   'P 1'
_cell_length_a   9.28492791
_cell_length_b   10.73711586
_cell_length_c   12.96234108
_cell_angle_alpha   90.00000000
_cell_angle_beta   90.00000000
_cell_angle_gamma   90.06494539
_symmetry_Int_Tables_number   1
_chemical_formula_structural   La2Mo4O15
_chemical_formula_sum   'La8 Mo16 O60'
_cell_volume   1292.25833348
_cell_formula_units_Z   4
loop_
 _symmetry_equiv_pos_site_id
 _symmetry_equiv_pos_as_xyz
  1  'x, y, z'
loop_
 _atom_site_type_symbol
 _atom_site_label
 _atom_site_symmetry_multiplicity
 _atom_site_fract_x
 _atom_site_fract_y
 _atom_site_fract_z
 _atom_site_occupancy
  La  La0  1  0.917763  0.227105  0.644822  1
  La  La1  1  0.582237  0.272895  0.144822  1
  La  La2  1  0.082237  0.772895  0.355178  1
  La  La3  1  0.417763  0.727105  0.855178  1
  La  La4  1  0.347518  0.243523  0.626664  1
  La  La5  1  0.152482  0.256477  0.126664  1
  La  La6  1  0.652482  0.756477  0.373336  1
  La  La7  1  0.847518  0.743523  0.873336  1
  Mo  Mo8  1  0.137646  0.907711  0.665844  1
  Mo  Mo9  1  0.362354  0.592289  0.165844  1
  Mo  Mo10  1  0.862354  0.092289  0.334156  1
  Mo  Mo11  1  0.637646  0.407711  0.834156  1
  Mo  Mo12  1  0.627613  0.941232  0.654058  1
  Mo  Mo13  1  0.872387  0.558768  0.154058  1
  Mo  Mo14  1  0.372387  0.058768  0.345942  1
  Mo  Mo15  1  0.127613  0.441232  0.845942  1
  Mo  Mo16  1  0.074439  0.398537  0.409724  1
  Mo  Mo17  1  0.425561  0.101463  0.909724  1
  Mo  Mo18  1  0.925561  0.601463  0.590276  1
  Mo  Mo19  1  0.574439  0.898537  0.090276  1
  Mo  Mo20  1  0.696739  0.379495  0.439468  1
  Mo  Mo21  1  0.803261  0.120505  0.939468  1
  Mo  Mo22  1  0.303261  0.620505  0.560532  1
  Mo  Mo23  1  0.196739  0.879495  0.060532  1
  O  O24  1  0.624745  0.844588  0.771640  1
  O  O25  1  0.875255  0.655412  0.271640  1
  O  O26  1  0.375255  0.155412  0.228360  1
  O  O27  1  0.124745  0.344588  0.728360  1
  O  O28  1  0.112066  0.290438  0.512317  1
  O  O29  1  0.387934  0.209562  0.012317  1
  O  O30  1  0.887934  0.709562  0.487683  1
  O  O31  1  0.612066  0.790438  0.987683  1
  O  O32  1  0.117409  0.560724  0.448841  1
  O  O33  1  0.382591  0.939276  0.948841  1
  O  O34  1  0.882591  0.439276  0.551159  1
  O  O35  1  0.617409  0.060724  0.051159  1
  O  O36  1  0.171939  0.816291  0.548645  1
  O  O37  1  0.328061  0.683709  0.048645  1
  O  O38  1  0.828061  0.183709  0.451355  1
  O  O39  1  0.671939  0.316291  0.951355  1
  O  O40  1  0.891623  0.393817  0.354584  1
  O  O41  1  0.608377  0.106183  0.854584  1
  O  O42  1  0.108377  0.606183  0.645416  1
  O  O43  1  0.391623  0.893817  0.145416  1
  O  O44  1  0.123367  0.074056  0.637442  1
  O  O45  1  0.376633  0.425944  0.137442  1
  O  O46  1  0.876633  0.925944  0.362558  1
  O  O47  1  0.623367  0.574056  0.862558  1
  O  O48  1  0.190001  0.358056  0.309283  1
  O  O49  1  0.309999  0.141944  0.809283  1
  O  O50  1  0.809999  0.641944  0.690717  1
  O  O51  1  0.690001  0.858056  0.190717  1
  O  O52  1  0.595191  0.324229  0.333790  1
  O  O53  1  0.904809  0.175771  0.833790  1
  O  O54  1  0.404809  0.675771  0.666210  1
  O  O55  1  0.095191  0.824229  0.166210  1
  O  O56  1  0.651475  0.540536  0.440665  1
  O  O57  1  0.848525  0.959464  0.940665  1
  O  O58  1  0.348525  0.459464  0.559335  1
  O  O59  1  0.151475  0.040537  0.059335  1
  O  O60  1  0.475973  0.042418  0.643514  1
  O  O61  1  0.024027  0.457582  0.143514  1
  O  O62  1  0.524027  0.957582  0.356486  1
  O  O63  1  0.975973  0.542418  0.856486  1
  O  O64  1  0.616254  0.312338  0.551046  1
  O  O65  1  0.883746  0.187662  0.051046  1
  O  O66  1  0.383746  0.687662  0.448954  1
  O  O67  1  0.116254  0.812338  0.948954  1
  O  O68  1  0.630036  0.841929  0.544169  1
  O  O69  1  0.869964  0.658071  0.044169  1
  O  O70  1  0.369964  0.158071  0.455831  1
  O  O71  1  0.130036  0.341929  0.955831  1
  O  O72  1  0.784341  0.037964  0.649401  1
  O  O73  1  0.715659  0.462036  0.149401  1
  O  O74  1  0.215659  0.962036  0.350599  1
  O  O75  1  0.284341  0.537964  0.850599  1
  O  O76  1  0.280050  0.876978  0.752194  1
  O  O77  1  0.219950  0.623022  0.252194  1
  O  O78  1  0.719950  0.123022  0.247806  1
  O  O79  1  0.780050  0.376978  0.747806  1
  O  O80  1  0.979892  0.852147  0.728536  1
  O  O81  1  0.520108  0.647853  0.228536  1
  O  O82  1  0.020108  0.147853  0.271464  1
  O  O83  1  0.479892  0.352147  0.771464  1
