# generated using pymatgen
data_La2MoO6
_symmetry_space_group_name_H-M   'P 1'
_cell_length_a   5.83385706
_cell_length_b   5.83385705
_cell_length_c   16.71375090
_cell_angle_alpha   100.05088199
_cell_angle_beta   100.05088200
_cell_angle_gamma   90.00000000
_symmetry_Int_Tables_number   1
_chemical_formula_structural   La2MoO6
_chemical_formula_sum   'La8 Mo4 O24'
_cell_volume   551.23608155
_cell_formula_units_Z   4
loop_
 _symmetry_equiv_pos_site_id
 _symmetry_equiv_pos_as_xyz
  1  'x, y, z'
loop_
 _atom_site_type_symbol
 _atom_site_label
 _atom_site_symmetry_multiplicity
 _atom_site_fract_x
 _atom_site_fract_y
 _atom_site_fract_z
 _atom_site_occupancy
  O  O0  1  0.750000  0.993692  0.500000  1
  O  O1  1  0.006308  0.250000  0.000000  1
  O  O2  1  0.493692  0.750000  0.000000  1
  O  O3  1  0.250000  0.506308  0.500000  1
  O  O4  1  0.250000  0.006308  0.500000  1
  O  O5  1  0.993692  0.750000  0.000000  1
  O  O6  1  0.506308  0.250000  0.000000  1
  O  O7  1  0.750000  0.493692  0.500000  1
  O  O8  1  0.328808  0.240706  0.821410  1
  O  O9  1  0.419297  0.007398  0.678590  1
  O  O10  1  0.759294  0.671192  0.678590  1
  O  O11  1  0.507398  0.259294  0.178590  1
  O  O12  1  0.007398  0.419297  0.178590  1
  O  O13  1  0.259294  0.507398  0.678590  1
  O  O14  1  0.919297  0.171192  0.678590  1
  O  O15  1  0.828808  0.080703  0.821410  1
  O  O16  1  0.492602  0.740706  0.821410  1
  O  O17  1  0.240706  0.328808  0.321410  1
  O  O18  1  0.580703  0.992602  0.321410  1
  O  O19  1  0.671192  0.759294  0.178590  1
  O  O20  1  0.992602  0.580703  0.821410  1
  O  O21  1  0.740706  0.492602  0.321410  1
  O  O22  1  0.080703  0.828808  0.321410  1
  O  O23  1  0.171192  0.919297  0.178590  1
  Mo  Mo24  1  0.375000  0.125000  0.250000  1
  Mo  Mo25  1  0.625000  0.875000  0.750000  1
  Mo  Mo26  1  0.125000  0.375000  0.750000  1
  Mo  Mo27  1  0.875000  0.625000  0.250000  1
  La  La28  1  0.211885  0.961885  0.923769  1
  La  La29  1  0.461885  0.711885  0.423769  1
  La  La30  1  0.288115  0.538115  0.076231  1
  La  La31  1  0.038115  0.788115  0.576231  1
  La  La32  1  0.788115  0.038115  0.076231  1
  La  La33  1  0.538115  0.288115  0.576231  1
  La  La34  1  0.711885  0.461885  0.923769  1
  La  La35  1  0.961885  0.211885  0.423769  1
