# generated using pymatgen
data_La2NiO4
_symmetry_space_group_name_H-M   'P 1'
_cell_length_a   5.60789174
_cell_length_b   5.60789174
_cell_length_c   12.42322913
_cell_angle_alpha   90.00000000
_cell_angle_beta   90.00000000
_cell_angle_gamma   90.00000000
_symmetry_Int_Tables_number   1
_chemical_formula_structural   La2NiO4
_chemical_formula_sum   'La8 Ni4 O16'
_cell_volume   390.69129725
_cell_formula_units_Z   4
loop_
 _symmetry_equiv_pos_site_id
 _symmetry_equiv_pos_as_xyz
  1  'x, y, z'
loop_
 _atom_site_type_symbol
 _atom_site_label
 _atom_site_symmetry_multiplicity
 _atom_site_fract_x
 _atom_site_fract_y
 _atom_site_fract_z
 _atom_site_occupancy
  O  O0  1  0.953529  0.953529  0.820669  1
  O  O1  1  0.546471  0.546471  0.820669  1
  O  O2  1  0.453529  0.453529  0.179331  1
  O  O3  1  0.953529  0.546471  0.320669  1
  O  O4  1  0.546471  0.953529  0.320669  1
  O  O5  1  0.046471  0.453529  0.679331  1
  O  O6  1  0.453529  0.046471  0.679331  1
  O  O7  1  0.046471  0.046471  0.179331  1
  O  O8  1  0.750000  0.250000  0.500000  1
  O  O9  1  0.250000  0.750000  0.000000  1
  O  O10  1  0.250000  0.750000  0.500000  1
  O  O11  1  0.750000  0.250000  0.000000  1
  O  O12  1  0.250000  0.250000  0.975202  1
  O  O13  1  0.250000  0.250000  0.475202  1
  O  O14  1  0.750000  0.750000  0.524798  1
  O  O15  1  0.750000  0.750000  0.024798  1
  Ni  Ni16  1  0.500000  0.500000  0.000000  1
  Ni  Ni17  1  0.000000  0.500000  0.500000  1
  Ni  Ni18  1  0.500000  0.000000  0.500000  1
  Ni  Ni19  1  0.000000  0.000000  0.000000  1
  La  La20  1  0.012803  0.012803  0.637017  1
  La  La21  1  0.487197  0.487197  0.637017  1
  La  La22  1  0.512803  0.512803  0.362983  1
  La  La23  1  0.012803  0.487197  0.137017  1
  La  La24  1  0.487197  0.012803  0.137017  1
  La  La25  1  0.987197  0.512803  0.862983  1
  La  La26  1  0.512803  0.987197  0.862983  1
  La  La27  1  0.987197  0.987197  0.362983  1
