# generated using pymatgen
data_La8Ni4O17
_symmetry_space_group_name_H-M   'P 1'
_cell_length_a   6.90271652
_cell_length_b   7.79377286
_cell_length_c   8.74090422
_cell_angle_alpha   63.09051890
_cell_angle_beta   67.59658096
_cell_angle_gamma   73.43279036
_symmetry_Int_Tables_number   1
_chemical_formula_structural   La8Ni4O17
_chemical_formula_sum   'La8 Ni4 O17'
_cell_volume   384.04240335
_cell_formula_units_Z   1
loop_
 _symmetry_equiv_pos_site_id
 _symmetry_equiv_pos_as_xyz
  1  'x, y, z'
loop_
 _atom_site_type_symbol
 _atom_site_label
 _atom_site_symmetry_multiplicity
 _atom_site_fract_x
 _atom_site_fract_y
 _atom_site_fract_z
 _atom_site_occupancy
  La  La0  1  0.717005  0.909501  0.827858  1
  La  La1  1  0.707301  0.410288  0.824547  1
  La  La2  1  0.279817  0.837741  0.673279  1
  La  La3  1  0.274532  0.336441  0.681557  1
  La  La4  1  0.723762  0.660688  0.313313  1
  La  La5  1  0.713078  0.162710  0.321681  1
  La  La6  1  0.285848  0.090725  0.176937  1
  La  La7  1  0.288598  0.583329  0.186331  1
  Ni  Ni8  1  0.995051  0.247976  0.505003  1
  Ni  Ni9  1  0.992708  0.751145  0.500956  1
  Ni  Ni10  1  0.000521  0.997014  0.001703  1
  Ni  Ni11  1  0.005478  0.504523  0.993624  1
  O  O12  1  0.341428  0.980589  0.917937  1
  O  O13  1  0.342902  0.476164  0.845428  1
  O  O14  1  0.969313  0.129697  0.760668  1
  O  O15  1  0.971199  0.627948  0.753728  1
  O  O16  1  0.657737  0.296026  0.574952  1
  O  O17  1  0.653756  0.791650  0.586958  1
  O  O18  1  0.010296  0.997990  0.499256  1
  O  O19  1  0.343681  0.172252  0.481375  1
  O  O20  1  0.341474  0.709881  0.412930  1
  O  O21  1  0.011017  0.500457  0.491287  1
  O  O22  1  0.009667  0.370215  0.247148  1
  O  O23  1  0.663010  0.980151  0.087491  1
  O  O24  1  0.491738  0.314436  0.126912  1
  O  O25  1  0.664533  0.600861  0.087767  1
  O  O26  1  0.983372  0.880419  0.255156  1
  O  O27  1  0.054037  0.741588  0.990034  1
  O  O28  1  0.974990  0.254113  0.007220  1
