# generated using pymatgen
data_La2Ni22C3
_symmetry_space_group_name_H-M   'P 1'
_cell_length_a   9.42698316
_cell_length_b   9.42698308
_cell_length_c   14.70240261
_cell_angle_alpha   90.00000000
_cell_angle_beta   90.00000000
_cell_angle_gamma   105.59915260
_symmetry_Int_Tables_number   1
_chemical_formula_structural   La2Ni22C3
_chemical_formula_sum   'La8 Ni88 C12'
_cell_volume   1258.44766398
_cell_formula_units_Z   4
loop_
 _symmetry_equiv_pos_site_id
 _symmetry_equiv_pos_as_xyz
  1  'x, y, z'
loop_
 _atom_site_type_symbol
 _atom_site_label
 _atom_site_symmetry_multiplicity
 _atom_site_fract_x
 _atom_site_fract_y
 _atom_site_fract_z
 _atom_site_occupancy
  La  La0  1  0.313300  0.186700  0.750000  1
  La  La1  1  0.792947  0.207053  0.971551  1
  La  La2  1  0.207053  0.792947  0.028449  1
  La  La3  1  0.686700  0.813300  0.250000  1
  La  La4  1  0.813300  0.686700  0.750000  1
  La  La5  1  0.292947  0.707053  0.528449  1
  La  La6  1  0.707053  0.292947  0.471551  1
  La  La7  1  0.186700  0.313300  0.250000  1
  Ni  Ni8  1  0.362370  0.288700  0.072004  1
  Ni  Ni9  1  0.570582  0.069922  0.317741  1
  Ni  Ni10  1  0.253254  0.100546  0.950876  1
  Ni  Ni11  1  0.090187  0.468171  0.951962  1
  Ni  Ni12  1  0.211300  0.137630  0.427996  1
  Ni  Ni13  1  0.822060  0.395460  0.656358  1
  Ni  Ni14  1  0.899454  0.746746  0.950876  1
  Ni  Ni15  1  0.769711  0.007435  0.421651  1
  Ni  Ni16  1  0.840171  0.159829  0.287970  1
  Ni  Ni17  1  0.938686  0.061314  0.156105  1
  Ni  Ni18  1  0.322060  0.895460  0.843642  1
  Ni  Ni19  1  0.531829  0.909813  0.951962  1
  Ni  Ni20  1  0.545280  0.796861  0.799815  1
  Ni  Ni21  1  0.677940  0.104540  0.156358  1
  Ni  Ni22  1  0.862370  0.788700  0.427996  1
  Ni  Ni23  1  0.569922  0.070582  0.817741  1
  Ni  Ni24  1  0.446615  0.295508  0.368944  1
  Ni  Ni25  1  0.788700  0.862370  0.572004  1
  Ni  Ni26  1  0.295508  0.446615  0.631056  1
  Ni  Ni27  1  0.142963  0.857037  0.411799  1
  Ni  Ni28  1  0.007435  0.769711  0.578349  1
  Ni  Ni29  1  0.045280  0.296861  0.700185  1
  Ni  Ni30  1  0.246746  0.399454  0.450876  1
  Ni  Ni31  1  0.061314  0.938686  0.843895  1
  Ni  Ni32  1  0.031829  0.409813  0.548038  1
  Ni  Ni33  1  0.069922  0.570582  0.682259  1
  Ni  Ni34  1  0.203139  0.454720  0.799815  1
  Ni  Ni35  1  0.659829  0.340171  0.787970  1
  Ni  Ni36  1  0.677945  0.322055  0.265475  1
  Ni  Ni37  1  0.177940  0.604540  0.343642  1
  Ni  Ni38  1  0.502926  0.497074  0.176172  1
  Ni  Ni39  1  0.000000  0.000000  0.000000  1
  Ni  Ni40  1  0.159829  0.840171  0.712030  1
  Ni  Ni41  1  0.070582  0.569922  0.182259  1
  Ni  Ni42  1  0.230289  0.992565  0.578349  1
  Ni  Ni43  1  0.053385  0.204492  0.868944  1
  Ni  Ni44  1  0.438686  0.561314  0.343895  1
  Ni  Ni45  1  0.604540  0.177940  0.656358  1
  Ni  Ni46  1  0.399454  0.246746  0.549124  1
  Ni  Ni47  1  0.590187  0.968171  0.548038  1
  Ni  Ni48  1  0.269711  0.507435  0.078349  1
  Ni  Ni49  1  0.497074  0.502926  0.823828  1
  Ni  Ni50  1  0.930078  0.429418  0.317741  1
  Ni  Ni51  1  0.642963  0.357037  0.088201  1
  Ni  Ni52  1  0.357037  0.642963  0.911799  1
  Ni  Ni53  1  0.561314  0.438686  0.656105  1
  Ni  Ni54  1  0.177945  0.822055  0.234525  1
  Ni  Ni55  1  0.946615  0.795508  0.131056  1
  Ni  Ni56  1  0.600546  0.753254  0.450876  1
  Ni  Ni57  1  0.704492  0.553385  0.368944  1
  Ni  Ni58  1  0.553385  0.704492  0.631056  1
  Ni  Ni59  1  0.454720  0.203139  0.200185  1
  Ni  Ni60  1  0.753254  0.600546  0.549124  1
  Ni  Ni61  1  0.395460  0.822060  0.343642  1
  Ni  Ni62  1  0.992565  0.230289  0.421651  1
  Ni  Ni63  1  0.909813  0.531829  0.048038  1
  Ni  Ni64  1  0.104540  0.677940  0.843642  1
  Ni  Ni65  1  0.500000  0.500000  0.000000  1
  Ni  Ni66  1  0.500000  0.500000  0.500000  1
  Ni  Ni67  1  0.822055  0.177945  0.765475  1
  Ni  Ni68  1  0.796861  0.545280  0.200185  1
  Ni  Ni69  1  0.895460  0.322060  0.156358  1
  Ni  Ni70  1  0.968171  0.590187  0.451962  1
  Ni  Ni71  1  0.409813  0.031829  0.451962  1
  Ni  Ni72  1  0.492565  0.730289  0.078349  1
  Ni  Ni73  1  0.507435  0.269711  0.921651  1
  Ni  Ni74  1  0.730289  0.492565  0.921651  1
  Ni  Ni75  1  0.204492  0.053385  0.131056  1
  Ni  Ni76  1  0.429418  0.930078  0.682259  1
  Ni  Ni77  1  0.340171  0.659829  0.212030  1
  Ni  Ni78  1  0.288700  0.362370  0.927996  1
  Ni  Ni79  1  0.746746  0.899454  0.049124  1
  Ni  Ni80  1  0.711300  0.637630  0.072004  1
  Ni  Ni81  1  0.296861  0.045280  0.299815  1
  Ni  Ni82  1  0.929418  0.430078  0.817741  1
  Ni  Ni83  1  0.954720  0.703139  0.299815  1
  Ni  Ni84  1  0.322055  0.677945  0.734525  1
  Ni  Ni85  1  0.430078  0.929418  0.182259  1
  Ni  Ni86  1  0.637630  0.711300  0.927996  1
  Ni  Ni87  1  0.857037  0.142963  0.588201  1
  Ni  Ni88  1  0.000000  0.000000  0.500000  1
  Ni  Ni89  1  0.002926  0.997074  0.323828  1
  Ni  Ni90  1  0.100546  0.253254  0.049124  1
  Ni  Ni91  1  0.137630  0.211300  0.572004  1
  Ni  Ni92  1  0.468171  0.090187  0.048038  1
  Ni  Ni93  1  0.795508  0.946615  0.868944  1
  Ni  Ni94  1  0.703139  0.954720  0.700185  1
  Ni  Ni95  1  0.997074  0.002926  0.676172  1
  C  C96  1  0.053032  0.946968  0.208810  1
  C  C97  1  0.942122  0.566416  0.916748  1
  C  C98  1  0.553032  0.446968  0.291190  1
  C  C99  1  0.066416  0.442122  0.416748  1
  C  C100  1  0.433584  0.057878  0.916748  1
  C  C101  1  0.057878  0.433584  0.083252  1
  C  C102  1  0.442122  0.066416  0.583252  1
  C  C103  1  0.446968  0.553032  0.708810  1
  C  C104  1  0.946968  0.053032  0.791190  1
  C  C105  1  0.566416  0.942122  0.083252  1
  C  C106  1  0.933584  0.557878  0.583252  1
  C  C107  1  0.557878  0.933584  0.416748  1
