# generated using pymatgen
data_La2Pt2O7
_symmetry_space_group_name_H-M   'P 1'
_cell_length_a   7.96667459
_cell_length_b   13.50603586
_cell_length_c   5.65797557
_cell_angle_alpha   90.00000000
_cell_angle_beta   90.00000000
_cell_angle_gamma   98.40817435
_symmetry_Int_Tables_number   1
_chemical_formula_structural   La2Pt2O7
_chemical_formula_sum   'La8 Pt8 O28'
_cell_volume   602.24437721
_cell_formula_units_Z   4
loop_
 _symmetry_equiv_pos_site_id
 _symmetry_equiv_pos_as_xyz
  1  'x, y, z'
loop_
 _atom_site_type_symbol
 _atom_site_label
 _atom_site_symmetry_multiplicity
 _atom_site_fract_x
 _atom_site_fract_y
 _atom_site_fract_z
 _atom_site_occupancy
  La  La0  1  0.226602  0.905578  0.762267  1
  La  La1  1  0.145678  0.573143  0.331898  1
  La  La2  1  0.282844  0.129337  0.248216  1
  La  La3  1  0.354441  0.396086  0.791200  1
  La  La4  1  0.645559  0.603914  0.291200  1
  La  La5  1  0.717156  0.870663  0.748216  1
  La  La6  1  0.854322  0.426857  0.831898  1
  La  La7  1  0.773398  0.094422  0.262267  1
  Pt  Pt8  1  0.075606  0.312728  0.274013  1
  Pt  Pt9  1  0.028386  0.110389  0.765012  1
  Pt  Pt10  1  0.418391  0.685322  0.775762  1
  Pt  Pt11  1  0.473511  0.888491  0.263748  1
  Pt  Pt12  1  0.526489  0.111509  0.763748  1
  Pt  Pt13  1  0.581609  0.314678  0.275762  1
  Pt  Pt14  1  0.971614  0.889611  0.265012  1
  Pt  Pt15  1  0.924394  0.687272  0.774013  1
  O  O16  1  0.018159  0.179925  0.450020  1
  O  O17  1  0.079233  0.407778  0.548917  1
  O  O18  1  0.176752  0.706105  0.665944  1
  O  O19  1  0.226901  0.906663  0.344682  1
  O  O20  1  0.124003  0.431586  0.062470  1
  O  O21  1  0.052600  0.021301  0.064569  1
  O  O22  1  0.126534  0.232710  0.967281  1
  O  O23  1  0.374179  0.602479  0.063365  1
  O  O24  1  0.429611  0.819945  0.945718  1
  O  O25  1  0.327202  0.308613  0.387440  1
  O  O26  1  0.271643  0.087560  0.677027  1
  O  O27  1  0.404461  0.559757  0.577486  1
  O  O28  1  0.538768  0.977730  0.565234  1
  O  O29  1  0.511245  0.765170  0.466075  1
  O  O30  1  0.488755  0.234830  0.966075  1
  O  O31  1  0.461232  0.022270  0.065234  1
  O  O32  1  0.595539  0.440243  0.077486  1
  O  O33  1  0.728357  0.912440  0.177027  1
  O  O34  1  0.672798  0.691387  0.887440  1
  O  O35  1  0.570389  0.180055  0.445718  1
  O  O36  1  0.625821  0.397521  0.563365  1
  O  O37  1  0.873466  0.767290  0.467281  1
  O  O38  1  0.947400  0.978699  0.564569  1
  O  O39  1  0.875997  0.568414  0.562470  1
  O  O40  1  0.773099  0.093337  0.844682  1
  O  O41  1  0.823248  0.293895  0.165944  1
  O  O42  1  0.920767  0.592222  0.048917  1
  O  O43  1  0.981841  0.820075  0.950020  1
