# generated using pymatgen
data_La2Re3B7
_symmetry_space_group_name_H-M   'P 1'
_cell_length_a   6.80201100
_cell_length_b   7.72501731
_cell_length_c   11.69098305
_cell_angle_alpha   90.00000000
_cell_angle_beta   90.00000000
_cell_angle_gamma   90.00000000
_symmetry_Int_Tables_number   1
_chemical_formula_structural   La2Re3B7
_chemical_formula_sum   'La8 Re12 B28'
_cell_volume   614.31033528
_cell_formula_units_Z   4
loop_
 _symmetry_equiv_pos_site_id
 _symmetry_equiv_pos_as_xyz
  1  'x, y, z'
loop_
 _atom_site_type_symbol
 _atom_site_label
 _atom_site_symmetry_multiplicity
 _atom_site_fract_x
 _atom_site_fract_y
 _atom_site_fract_z
 _atom_site_occupancy
  La  La0  1  0.237836  0.678615  0.178526  1
  La  La1  1  0.762164  0.821385  0.178526  1
  La  La2  1  0.762164  0.178615  0.321474  1
  La  La3  1  0.237836  0.321385  0.321474  1
  La  La4  1  0.762164  0.321385  0.821474  1
  La  La5  1  0.237836  0.178615  0.821474  1
  La  La6  1  0.237836  0.821385  0.678526  1
  La  La7  1  0.762164  0.678615  0.678526  1
  Re  Re8  1  0.394640  0.908763  0.419966  1
  Re  Re9  1  0.605360  0.591237  0.419966  1
  Re  Re10  1  0.605360  0.408763  0.080034  1
  Re  Re11  1  0.394640  0.091237  0.080034  1
  Re  Re12  1  0.605360  0.091237  0.580034  1
  Re  Re13  1  0.394640  0.408763  0.580034  1
  Re  Re14  1  0.394640  0.591237  0.919966  1
  Re  Re15  1  0.605360  0.908763  0.919966  1
  Re  Re16  1  0.000000  0.750000  0.432337  1
  Re  Re17  1  -0.000000  0.250000  0.067663  1
  Re  Re18  1  -0.000000  0.250000  0.567663  1
  Re  Re19  1  0.000000  0.750000  0.932337  1
  B  B20  1  0.103010  0.966803  0.041421  1
  B  B21  1  0.896990  0.533197  0.041421  1
  B  B22  1  0.896990  0.466803  0.458579  1
  B  B23  1  0.103010  0.033197  0.458579  1
  B  B24  1  0.896990  0.033197  0.958579  1
  B  B25  1  0.103010  0.466803  0.958579  1
  B  B26  1  0.103010  0.533197  0.541421  1
  B  B27  1  0.896990  0.966803  0.541421  1
  B  B28  1  0.120940  0.959807  0.316877  1
  B  B29  1  0.879060  0.540193  0.316877  1
  B  B30  1  0.879060  0.459807  0.183123  1
  B  B31  1  0.120940  0.040193  0.183123  1
  B  B32  1  0.879060  0.040193  0.683123  1
  B  B33  1  0.120940  0.459807  0.683123  1
  B  B34  1  0.120940  0.540193  0.816877  1
  B  B35  1  0.879060  0.959807  0.816877  1
  B  B36  1  0.301381  0.629248  0.461922  1
  B  B37  1  0.698619  0.870752  0.461922  1
  B  B38  1  0.698619  0.129248  0.038078  1
  B  B39  1  0.301381  0.370752  0.038078  1
  B  B40  1  0.698619  0.370752  0.538078  1
  B  B41  1  0.301381  0.129248  0.538078  1
  B  B42  1  0.301381  0.870752  0.961922  1
  B  B43  1  0.698619  0.629248  0.961922  1
  B  B44  1  0.363707  -0.000000  0.250000  1
  B  B45  1  0.636293  0.500000  0.250000  1
  B  B46  1  0.636293  -0.000000  0.750000  1
  B  B47  1  0.363707  0.500000  0.750000  1
