# generated using pymatgen
data_La2Ti3O9
_symmetry_space_group_name_H-M   'P 1'
_cell_length_a   7.49684044
_cell_length_b   14.70064763
_cell_length_c   7.96320674
_cell_angle_alpha   90.00000000
_cell_angle_beta   90.00000000
_cell_angle_gamma   90.00000000
_symmetry_Int_Tables_number   1
_chemical_formula_structural   La2Ti3O9
_chemical_formula_sum   'La8 Ti12 O36'
_cell_volume   877.61235050
_cell_formula_units_Z   4
loop_
 _symmetry_equiv_pos_site_id
 _symmetry_equiv_pos_as_xyz
  1  'x, y, z'
loop_
 _atom_site_type_symbol
 _atom_site_label
 _atom_site_symmetry_multiplicity
 _atom_site_fract_x
 _atom_site_fract_y
 _atom_site_fract_z
 _atom_site_occupancy
  La  La0  1  0.164464  0.415985  0.750000  1
  La  La1  1  0.353394  0.680159  0.750000  1
  La  La2  1  0.146606  0.180159  0.250000  1
  La  La3  1  0.335536  0.915985  0.250000  1
  La  La4  1  0.664464  0.084015  0.750000  1
  La  La5  1  0.853394  0.819841  0.750000  1
  La  La6  1  0.646606  0.319841  0.250000  1
  La  La7  1  0.835536  0.584015  0.250000  1
  Ti  Ti8  1  0.000000  0.000000  0.000000  1
  Ti  Ti9  1  0.000000  0.000000  0.500000  1
  Ti  Ti10  1  0.172888  0.148589  0.750000  1
  Ti  Ti11  1  0.185356  0.425136  0.250000  1
  Ti  Ti12  1  0.314644  0.925136  0.750000  1
  Ti  Ti13  1  0.327112  0.648589  0.250000  1
  Ti  Ti14  1  0.500000  0.500000  0.000000  1
  Ti  Ti15  1  0.500000  0.500000  0.500000  1
  Ti  Ti16  1  0.672888  0.351411  0.750000  1
  Ti  Ti17  1  0.685356  0.074864  0.250000  1
  Ti  Ti18  1  0.814644  0.574864  0.750000  1
  Ti  Ti19  1  0.827112  0.851411  0.250000  1
  O  O20  1  0.964916  0.993331  0.750000  1
  O  O21  1  0.048028  0.601452  0.750000  1
  O  O22  1  0.138851  0.570123  0.250000  1
  O  O23  1  0.086332  0.126291  0.971358  1
  O  O24  1  0.086332  0.126291  0.528642  1
  O  O25  1  0.242677  0.263014  0.750000  1
  O  O26  1  0.191328  0.812761  0.750000  1
  O  O27  1  0.258768  0.451712  0.021697  1
  O  O28  1  0.258768  0.451712  0.478303  1
  O  O29  1  0.241232  0.951712  0.978303  1
  O  O30  1  0.241232  0.951712  0.521697  1
  O  O31  1  0.308672  0.312761  0.250000  1
  O  O32  1  0.257323  0.763014  0.250000  1
  O  O33  1  0.413668  0.626291  0.471358  1
  O  O34  1  0.413668  0.626291  0.028642  1
  O  O35  1  0.361149  0.070123  0.750000  1
  O  O36  1  0.451972  0.101452  0.250000  1
  O  O37  1  0.535084  0.493331  0.250000  1
  O  O38  1  0.464916  0.506669  0.750000  1
  O  O39  1  0.548028  0.898548  0.750000  1
  O  O40  1  0.638851  0.929877  0.250000  1
  O  O41  1  0.586332  0.373709  0.971358  1
  O  O42  1  0.586332  0.373709  0.528642  1
  O  O43  1  0.742677  0.236986  0.750000  1
  O  O44  1  0.691328  0.687239  0.750000  1
  O  O45  1  0.758768  0.048288  0.478303  1
  O  O46  1  0.758768  0.048288  0.021697  1
  O  O47  1  0.741232  0.548288  0.978303  1
  O  O48  1  0.741232  0.548288  0.521697  1
  O  O49  1  0.808672  0.187239  0.250000  1
  O  O50  1  0.757323  0.736986  0.250000  1
  O  O51  1  0.913668  0.873709  0.471358  1
  O  O52  1  0.913668  0.873709  0.028642  1
  O  O53  1  0.861149  0.429877  0.750000  1
  O  O54  1  0.951972  0.398548  0.250000  1
  O  O55  1  0.035084  0.006669  0.250000  1
