# generated using pymatgen
data_La2WO6
_symmetry_space_group_name_H-M   'P 1'
_cell_length_a   5.68092433
_cell_length_b   10.34536131
_cell_length_c   10.34536131
_cell_angle_alpha   68.90038053
_cell_angle_beta   75.90151366
_cell_angle_gamma   75.90151366
_symmetry_Int_Tables_number   1
_chemical_formula_structural   La2WO6
_chemical_formula_sum   'La8 W4 O24'
_cell_volume   541.93251568
_cell_formula_units_Z   4
loop_
 _symmetry_equiv_pos_site_id
 _symmetry_equiv_pos_as_xyz
  1  'x, y, z'
loop_
 _atom_site_type_symbol
 _atom_site_label
 _atom_site_symmetry_multiplicity
 _atom_site_fract_x
 _atom_site_fract_y
 _atom_site_fract_z
 _atom_site_occupancy
  La  La0  1  0.611610  0.059563  0.289887  1
  La  La1  1  0.111611  0.289887  0.059563  1
  La  La2  1  0.750000  0.630963  0.369037  1
  La  La3  1  0.750000  0.110731  0.889269  1
  La  La4  1  0.250000  0.889269  0.110731  1
  La  La5  1  0.250000  0.369037  0.630963  1
  La  La6  1  0.888390  0.710113  0.940437  1
  La  La7  1  0.388389  0.940437  0.710113  1
  W  W8  1  0.935985  0.199661  0.496181  1
  W  W9  1  0.435985  0.496181  0.199661  1
  W  W10  1  0.564015  0.503819  0.800339  1
  W  W11  1  0.064015  0.800339  0.503819  1
  O  O12  1  0.922283  0.106557  0.079124  1
  O  O13  1  0.422283  0.079124  0.106557  1
  O  O14  1  0.722615  0.472617  0.066729  1
  O  O15  1  0.854145  0.217847  0.325875  1
  O  O16  1  0.222615  0.066729  0.472617  1
  O  O17  1  0.354145  0.325875  0.217847  1
  O  O18  1  0.633080  0.172915  0.616057  1
  O  O19  1  0.133080  0.616057  0.172915  1
  O  O20  1  0.976740  0.382059  0.457268  1
  O  O21  1  0.579787  0.679964  0.162926  1
  O  O22  1  0.476740  0.457268  0.382059  1
  O  O23  1  0.079787  0.162926  0.679964  1
  O  O24  1  0.920213  0.837074  0.320036  1
  O  O25  1  0.523260  0.542732  0.617941  1
  O  O26  1  0.420213  0.320036  0.837074  1
  O  O27  1  0.023260  0.617941  0.542732  1
  O  O28  1  0.866920  0.383943  0.827085  1
  O  O29  1  0.366920  0.827085  0.383943  1
  O  O30  1  0.645855  0.674125  0.782153  1
  O  O31  1  0.777385  0.933271  0.527383  1
  O  O32  1  0.145855  0.782153  0.674125  1
  O  O33  1  0.277385  0.527383  0.933271  1
  O  O34  1  0.577717  0.920876  0.893443  1
  O  O35  1  0.077717  0.893443  0.920876  1
