# generated using pymatgen
data_La2Zn2O5
_symmetry_space_group_name_H-M   'P 1'
_cell_length_a   5.53523418
_cell_length_b   15.85939478
_cell_length_c   5.82010839
_cell_angle_alpha   90.00000000
_cell_angle_beta   90.00000000
_cell_angle_gamma   90.00000000
_symmetry_Int_Tables_number   1
_chemical_formula_structural   La2Zn2O5
_chemical_formula_sum   'La8 Zn8 O20'
_cell_volume   510.92091590
_cell_formula_units_Z   4
loop_
 _symmetry_equiv_pos_site_id
 _symmetry_equiv_pos_as_xyz
  1  'x, y, z'
loop_
 _atom_site_type_symbol
 _atom_site_label
 _atom_site_symmetry_multiplicity
 _atom_site_fract_x
 _atom_site_fract_y
 _atom_site_fract_z
 _atom_site_occupancy
  La  La0  1  0.996687  0.110615  0.479929  1
  La  La1  1  0.996687  0.389385  0.479929  1
  La  La2  1  0.503313  0.610615  0.979929  1
  La  La3  1  0.503313  0.889385  0.979929  1
  La  La4  1  0.496687  0.110615  0.020071  1
  La  La5  1  0.496687  0.389385  0.020071  1
  La  La6  1  0.003313  0.610615  0.520071  1
  La  La7  1  0.003313  0.889385  0.520071  1
  Zn  Zn8  1  0.000000  0.000000  0.000000  1
  Zn  Zn9  1  0.000000  0.500000  0.000000  1
  Zn  Zn10  1  0.044780  0.750000  0.057193  1
  Zn  Zn11  1  0.455220  0.250000  0.557193  1
  Zn  Zn12  1  0.500000  0.000000  0.500000  1
  Zn  Zn13  1  0.500000  0.500000  0.500000  1
  Zn  Zn14  1  0.544780  0.750000  0.442807  1
  Zn  Zn15  1  0.955220  0.250000  0.942807  1
  O  O16  1  0.021660  0.141408  0.086759  1
  O  O17  1  0.021660  0.358592  0.086759  1
  O  O18  1  0.081938  0.250000  0.614770  1
  O  O19  1  0.245190  0.517806  0.253968  1
  O  O20  1  0.245190  0.982194  0.253968  1
  O  O21  1  0.254810  0.482194  0.753968  1
  O  O22  1  0.254810  0.017806  0.753968  1
  O  O23  1  0.418062  0.750000  0.114770  1
  O  O24  1  0.478340  0.641408  0.586759  1
  O  O25  1  0.478340  0.858592  0.586759  1
  O  O26  1  0.521660  0.141408  0.413241  1
  O  O27  1  0.521660  0.358592  0.413241  1
  O  O28  1  0.581938  0.250000  0.885230  1
  O  O29  1  0.745190  0.982194  0.246032  1
  O  O30  1  0.745190  0.517806  0.246032  1
  O  O31  1  0.754810  0.017806  0.746032  1
  O  O32  1  0.754810  0.482194  0.746032  1
  O  O33  1  0.918062  0.750000  0.385230  1
  O  O34  1  0.978340  0.641408  0.913241  1
  O  O35  1  0.978340  0.858592  0.913241  1
