# generated using pymatgen
data_LaCu4
_symmetry_space_group_name_H-M   'P 1'
_cell_length_a   8.89007753
_cell_length_b   8.89007765
_cell_length_c   11.46436079
_cell_angle_alpha   112.81312397
_cell_angle_beta   112.81312432
_cell_angle_gamma   89.99999600
_symmetry_Int_Tables_number   1
_chemical_formula_structural   LaCu4
_chemical_formula_sum   'La9 Cu36'
_cell_volume   757.71150707
_cell_formula_units_Z   9
loop_
 _symmetry_equiv_pos_site_id
 _symmetry_equiv_pos_as_xyz
  1  'x, y, z'
loop_
 _atom_site_type_symbol
 _atom_site_label
 _atom_site_symmetry_multiplicity
 _atom_site_fract_x
 _atom_site_fract_y
 _atom_site_fract_z
 _atom_site_occupancy
  Cu  Cu0  1  0.245939  0.245939  0.000000  1
  Cu  Cu1  1  0.245939  0.754061  0.000000  1
  Cu  Cu2  1  0.754061  0.245939  0.000000  1
  Cu  Cu3  1  0.754061  0.754061  0.000000  1
  Cu  Cu4  1  0.552956  0.209047  0.418094  1
  Cu  Cu5  1  0.790953  0.447044  0.581906  1
  Cu  Cu6  1  0.790953  0.134862  0.581906  1
  Cu  Cu7  1  0.865138  0.209047  0.418094  1
  Cu  Cu8  1  0.151241  0.794191  0.588381  1
  Cu  Cu9  1  0.205809  0.848759  0.411619  1
  Cu  Cu10  1  0.205809  0.562860  0.411619  1
  Cu  Cu11  1  0.437140  0.794191  0.588381  1
  Cu  Cu12  1  0.922969  0.668785  0.337571  1
  Cu  Cu13  1  0.331215  0.077031  0.662429  1
  Cu  Cu14  1  0.331215  0.585399  0.662429  1
  Cu  Cu15  1  0.414601  0.668785  0.337571  1
  Cu  Cu16  1  0.697808  0.541445  0.082891  1
  Cu  Cu17  1  0.458555  0.302192  0.917109  1
  Cu  Cu18  1  0.458555  0.614917  0.917109  1
  Cu  Cu19  1  0.385083  0.541445  0.082891  1
  Cu  Cu20  1  0.365364  0.079261  0.158523  1
  Cu  Cu21  1  0.920739  0.634636  0.841477  1
  Cu  Cu22  1  0.920739  0.206841  0.841477  1
  Cu  Cu23  1  0.793159  0.079261  0.158523  1
  Cu  Cu24  1  0.004386  0.504386  0.500000  1
  Cu  Cu25  1  0.004386  0.995614  0.500000  1
  Cu  Cu26  1  0.495614  0.504386  0.500000  1
  Cu  Cu27  1  0.495614  0.995614  0.500000  1
  Cu  Cu28  1  0.282268  0.354901  0.242180  1
  Cu  Cu29  1  0.112722  0.717732  0.757820  1
  Cu  Cu30  1  0.645099  0.040089  0.757820  1
  Cu  Cu31  1  0.112722  0.040089  0.757820  1
  Cu  Cu32  1  0.645099  0.717732  0.757820  1
  Cu  Cu33  1  0.959911  0.887278  0.242180  1
  Cu  Cu34  1  0.959911  0.354901  0.242180  1
  Cu  Cu35  1  0.282268  0.887278  0.242180  1
  La  La36  1  0.000000  0.000000  0.000000  1
  La  La37  1  0.206756  0.206756  0.413511  1
  La  La38  1  0.793244  0.793244  0.586489  1
  La  La39  1  0.051820  0.551820  0.103641  1
  La  La40  1  0.448180  0.948180  0.896359  1
  La  La41  1  0.618414  0.374131  0.748263  1
  La  La42  1  0.625869  0.381586  0.251737  1
  La  La43  1  0.625869  0.870151  0.251737  1
  La  La44  1  0.129849  0.374131  0.748263  1
