# generated using pymatgen
data_La9Mn10O30
_symmetry_space_group_name_H-M   'P 1'
_cell_length_a   9.63317709
_cell_length_b   7.86049545
_cell_length_c   9.53795677
_cell_angle_alpha   113.56143642
_cell_angle_beta   99.00438818
_cell_angle_gamma   66.18182775
_symmetry_Int_Tables_number   1
_chemical_formula_structural   La9Mn10O30
_chemical_formula_sum   'La9 Mn10 O30'
_cell_volume   605.62463160
_cell_formula_units_Z   1
loop_
 _symmetry_equiv_pos_site_id
 _symmetry_equiv_pos_as_xyz
  1  'x, y, z'
loop_
 _atom_site_type_symbol
 _atom_site_label
 _atom_site_symmetry_multiplicity
 _atom_site_fract_x
 _atom_site_fract_y
 _atom_site_fract_z
 _atom_site_occupancy
  La  La0  1  0.899566  0.447555  0.299406  1
  La  La1  1  0.708397  0.343159  0.891794  1
  La  La2  1  0.701807  0.851746  0.901623  1
  La  La3  1  0.905132  0.950659  0.310403  1
  La  La4  1  0.499566  0.254615  0.502543  1
  La  La5  1  0.490847  0.756582  0.505785  1
  La  La6  1  0.101590  0.549228  0.699924  1
  La  La7  1  0.293461  0.150379  0.092211  1
  La  La8  1  0.298139  0.646459  0.097178  1
  Mn  Mn9  1  0.803341  0.397258  0.600308  1
  Mn  Mn10  1  0.801476  0.901233  0.601630  1
  Mn  Mn11  1  0.396490  0.199638  0.799120  1
  Mn  Mn12  1  0.599403  0.800095  0.199680  1
  Mn  Mn13  1  0.600015  0.299860  0.198925  1
  Mn  Mn14  1  0.397551  0.702367  0.799343  1
  Mn  Mn15  1  0.199448  0.099815  0.402293  1
  Mn  Mn16  1  0.199750  0.603842  0.403639  1
  Mn  Mn17  1  0.001093  0.496863  0.998300  1
  Mn  Mn18  1  0.001098  0.999190  0.996711  1
  O  O19  1  0.960316  0.274149  0.006617  1
  O  O20  1  0.911774  0.894636  0.793176  1
  O  O21  1  0.874567  0.501593  0.814024  1
  O  O22  1  0.985238  0.712936  0.474741  1
  O  O23  1  0.812981  0.145782  0.604702  1
  O  O24  1  0.759748  0.664140  0.588033  1
  O  O25  1  0.810236  0.693529  0.126359  1
  O  O26  1  0.613263  0.081409  0.725414  1
  O  O27  1  0.529270  0.697991  0.987298  1
  O  O28  1  0.723442  0.303815  0.386762  1
  O  O29  1  0.788675  0.116655  0.078758  1
  O  O30  1  0.590075  0.519674  0.679619  1
  O  O31  1  0.674538  0.895631  0.410444  1
  O  O32  1  0.634808  0.538968  0.211165  1
  O  O33  1  0.436932  0.938041  0.813850  1
  O  O34  1  0.560153  0.063064  0.186346  1
  O  O35  1  0.369505  0.458780  0.787232  1
  O  O36  1  0.219334  0.869086  0.934881  1
  O  O37  1  0.412267  0.483849  0.320945  1
  O  O38  1  0.335971  0.111343  0.582221  1
  O  O39  1  0.389813  0.912278  0.273527  1
  O  O40  1  0.480415  0.292919  0.009827  1
  O  O41  1  0.292231  0.666738  0.604196  1
  O  O42  1  0.195870  0.338230  0.892520  1
  O  O43  1  0.233749  0.336656  0.406602  1
  O  O44  1  0.173550  0.848240  0.371854  1
  O  O45  1  0.119669  0.504655  0.190119  1
  O  O46  1  0.004916  0.299637  0.512363  1
  O  O47  1  0.077542  0.094203  0.211891  1
  O  O48  1  0.030985  0.740831  0.013695  1
