# generated using pymatgen
data_La3Mn3O10
_symmetry_space_group_name_H-M   'P 1'
_cell_length_a   5.45732534
_cell_length_b   5.45531341
_cell_length_c   22.85851252
_cell_angle_alpha   96.96690994
_cell_angle_beta   89.49606154
_cell_angle_gamma   61.13215639
_symmetry_Int_Tables_number   1
_chemical_formula_structural   La3Mn3O10
_chemical_formula_sum   'La9 Mn9 O30'
_cell_volume   589.78575587
_cell_formula_units_Z   3
loop_
 _symmetry_equiv_pos_site_id
 _symmetry_equiv_pos_as_xyz
  1  'x, y, z'
loop_
 _atom_site_type_symbol
 _atom_site_label
 _atom_site_symmetry_multiplicity
 _atom_site_fract_x
 _atom_site_fract_y
 _atom_site_fract_z
 _atom_site_occupancy
  La  La0  1  0.747720  0.498634  0.748384  1
  La  La1  1  0.953095  0.096681  0.142882  1
  La  La2  1  0.547479  0.904271  0.359420  1
  La  La3  1  0.651762  0.699146  0.043717  1
  La  La4  1  0.346046  0.301635  0.958139  1
  La  La5  1  0.043643  0.906192  0.859535  1
  La  La6  1  0.445480  0.100363  0.644932  1
  La  La7  1  0.156890  0.692423  0.539728  1
  La  La8  1  0.247288  0.508609  0.253350  1
  Mn  Mn9  1  0.694104  0.603683  0.899466  1
  Mn  Mn10  1  0.803808  0.393405  0.596279  1
  Mn  Mn11  1  0.902005  0.199300  0.302446  1
  Mn  Mn12  1  0.600095  0.801444  0.200870  1
  Mn  Mn13  1  0.397834  0.202628  0.800091  1
  Mn  Mn14  1  0.499376  0.001500  0.497288  1
  Mn  Mn15  1  0.096683  0.801780  0.699974  1
  Mn  Mn16  1  0.195198  0.604438  0.401769  1
  Mn  Mn17  1  0.305873  0.396296  0.101280  1
  O  O18  1  0.877112  0.789827  0.457769  1
  O  O19  1  0.811506  0.943858  0.247373  1
  O  O20  1  0.785418  0.848033  0.944596  1
  O  O21  1  0.005391  0.458076  0.343243  1
  O  O22  1  0.900297  0.621785  0.137940  1
  O  O23  1  0.816680  0.355217  0.954804  1
  O  O24  1  0.576243  0.845986  0.835399  1
  O  O25  1  0.965370  0.057446  0.637506  1
  O  O26  1  0.634645  0.740554  0.560958  1
  O  O27  1  0.771947  0.455627  0.235407  1
  O  O28  1  0.617400  0.334795  0.846274  1
  O  O29  1  0.476762  0.593599  0.662017  1
  O  O30  1  0.398111  0.751377  0.449796  1
  O  O31  1  0.297402  0.985003  0.263371  1
  O  O32  1  0.659528  0.207148  0.063338  1
  O  O33  1  0.340150  0.793215  0.937379  1
  O  O34  1  0.705481  0.018936  0.737216  1
  O  O35  1  0.583452  0.250902  0.555546  1
  O  O36  1  0.524156  0.402823  0.337986  1
  O  O37  1  0.384430  0.668264  0.153586  1
  O  O38  1  0.225183  0.548359  0.764316  1
  O  O39  1  0.367790  0.264740  0.442341  1
  O  O40  1  0.422833  0.152981  0.164772  1
  O  O41  1  0.047764  0.912983  0.353865  1
  O  O42  1  0.183383  0.644722  0.045834  1
  O  O43  1  0.097911  0.381365  0.862859  1
  O  O44  1  0.995383  0.544195  0.652720  1
  O  O45  1  0.213462  0.154297  0.055646  1
  O  O46  1  0.188137  0.065123  0.750563  1
  O  O47  1  0.142147  0.196183  0.546026  1
