# generated using pymatgen
data_Lu5Rh3
_symmetry_space_group_name_H-M   'P 1'
_cell_length_a   6.15823068
_cell_length_b   8.11168427
_cell_length_c   8.11011610
_cell_angle_alpha   120.00640027
_cell_angle_beta   90.00000000
_cell_angle_gamma   90.00000000
_symmetry_Int_Tables_number   1
_chemical_formula_structural   Lu5Rh3
_chemical_formula_sum   'Lu10 Rh6'
_cell_volume   350.82996654
_cell_formula_units_Z   2
loop_
 _symmetry_equiv_pos_site_id
 _symmetry_equiv_pos_as_xyz
  1  'x, y, z'
loop_
 _atom_site_type_symbol
 _atom_site_label
 _atom_site_symmetry_multiplicity
 _atom_site_fract_x
 _atom_site_fract_y
 _atom_site_fract_z
 _atom_site_occupancy
  Lu  Lu0  1  0.500002  0.333311  0.666676  1
  Lu  Lu1  1  0.500002  0.666634  0.333324  1
  Lu  Lu2  1  0.000002  0.666689  0.333324  1
  Lu  Lu3  1  0.000002  0.333366  0.666676  1
  Lu  Lu4  1  0.750011  0.249928  0.000000  1
  Lu  Lu5  1  0.750002  0.750072  0.750090  1
  Lu  Lu6  1  0.750002  0.999982  0.249910  1
  Lu  Lu7  1  0.250011  0.750072  1.000000  1
  Lu  Lu8  1  0.250002  0.249928  0.249910  1
  Lu  Lu9  1  0.250002  0.000018  0.750090  1
  Rh  Rh10  1  0.750003  0.600168  -0.000000  1
  Rh  Rh11  1  0.749989  0.399839  0.399847  1
  Rh  Rh12  1  0.749989  0.999992  0.600153  1
  Rh  Rh13  1  0.250003  0.399832  0.000000  1
  Rh  Rh14  1  0.249989  0.600161  0.600153  1
  Rh  Rh15  1  0.249989  0.000008  0.399847  1
