# generated using pymatgen
data_Lu10Ti6O27
_symmetry_space_group_name_H-M   'P 1'
_cell_length_a   7.31527874
_cell_length_b   7.15243263
_cell_length_c   14.21125572
_cell_angle_alpha   59.78186635
_cell_angle_beta   59.55006685
_cell_angle_gamma   60.73370159
_symmetry_Int_Tables_number   1
_chemical_formula_structural   Lu10Ti6O27
_chemical_formula_sum   'Lu10 Ti6 O27'
_cell_volume   525.91160556
_cell_formula_units_Z   1
loop_
 _symmetry_equiv_pos_site_id
 _symmetry_equiv_pos_as_xyz
  1  'x, y, z'
loop_
 _atom_site_type_symbol
 _atom_site_label
 _atom_site_symmetry_multiplicity
 _atom_site_fract_x
 _atom_site_fract_y
 _atom_site_fract_z
 _atom_site_occupancy
  Lu  Lu0  1  0.018936  0.970954  0.269578  1
  Lu  Lu1  1  0.534500  0.987876  0.994874  1
  Lu  Lu2  1  0.987598  0.517853  0.238348  1
  Lu  Lu3  1  0.468768  0.525306  0.990310  1
  Lu  Lu4  1  0.509671  0.986873  0.251298  1
  Lu  Lu5  1  0.999248  0.482162  0.768214  1
  Lu  Lu6  1  0.509671  0.500860  0.251298  1
  Lu  Lu7  1  0.549350  0.994961  0.734074  1
  Lu  Lu8  1  0.529419  0.480604  0.504687  1
  Lu  Lu9  1  0.549350  0.487540  0.734074  1
  O  O10  1  0.095180  0.654275  0.048135  1
  O  O11  1  0.143463  0.158189  0.312704  1
  O  O12  1  0.613501  0.156637  0.063918  1
  O  O13  1  0.143463  0.572939  0.312704  1
  O  O14  1  0.370259  0.881128  0.183743  1
  O  O15  1  0.323511  0.351248  0.477854  1
  O  O16  1  0.972478  0.079339  0.865481  1
  O  O17  1  0.021795  0.789512  0.449590  1
  O  O18  1  0.613615  0.103630  0.339563  1
  O  O19  1  0.613501  0.602026  0.063918  1
  O  O20  1  0.659921  0.083919  0.541899  1
  O  O21  1  0.913116  0.338362  0.169240  1
  O  O22  1  0.360150  0.379440  0.690486  1
  O  O23  1  0.636996  0.614813  0.316689  1
  O  O24  1  0.972478  0.717222  0.865481  1
  O  O25  1  0.323511  0.869533  0.477854  1
  O  O26  1  0.331643  0.360647  0.939951  1
  O  O27  1  0.315836  0.914401  0.677681  1
  O  O28  1  0.668164  0.119834  0.796084  1
  O  O29  1  0.892110  0.311196  0.492749  1
  O  O30  1  0.913116  0.910042  0.169240  1
  O  O31  1  0.659921  0.672362  0.541899  1
  O  O32  1  0.939883  0.371479  0.661838  1
  O  O33  1  0.331643  0.927808  0.939951  1
  O  O34  1  0.633742  0.622546  0.810583  1
  O  O35  1  0.981410  0.308458  0.950837  1
  O  O36  1  0.939883  0.864963  0.661838  1
  Ti  Ti37  1  0.015988  0.996803  0.005634  1
  Ti  Ti38  1  0.025829  0.000903  0.491486  1
  Ti  Ti39  1  0.995326  0.998830  0.753508  1
  Ti  Ti40  1  0.505240  0.991292  0.506088  1
  Ti  Ti41  1  0.015988  0.475941  0.005634  1
  Ti  Ti42  1  0.025829  0.490296  0.491486  1
