# generated using pymatgen
data_Lu3TaO7
_symmetry_space_group_name_H-M   'P 1'
_cell_length_a   7.34184523
_cell_length_b   10.39904390
_cell_length_c   7.41174987
_cell_angle_alpha   90.00000000
_cell_angle_beta   90.00000000
_cell_angle_gamma   90.00000000
_symmetry_Int_Tables_number   1
_chemical_formula_structural   Lu3TaO7
_chemical_formula_sum   'Lu12 Ta4 O28'
_cell_volume   565.87354540
_cell_formula_units_Z   4
loop_
 _symmetry_equiv_pos_site_id
 _symmetry_equiv_pos_as_xyz
  1  'x, y, z'
loop_
 _atom_site_type_symbol
 _atom_site_label
 _atom_site_symmetry_multiplicity
 _atom_site_fract_x
 _atom_site_fract_y
 _atom_site_fract_z
 _atom_site_occupancy
  Lu  Lu0  1  0.012368  0.250000  0.795314  1
  Lu  Lu1  1  0.251508  0.518829  0.969278  1
  Lu  Lu2  1  0.251508  0.981171  0.969278  1
  Lu  Lu3  1  0.248492  0.018829  0.469278  1
  Lu  Lu4  1  0.248492  0.481171  0.469278  1
  Lu  Lu5  1  0.487632  0.750000  0.295314  1
  Lu  Lu6  1  0.512368  0.250000  0.704686  1
  Lu  Lu7  1  0.751508  0.518829  0.530722  1
  Lu  Lu8  1  0.751508  0.981171  0.530722  1
  Lu  Lu9  1  0.748492  0.018829  0.030722  1
  Lu  Lu10  1  0.748492  0.481171  0.030722  1
  Lu  Lu11  1  0.987632  0.750000  0.204686  1
  Ta  Ta12  1  0.999312  0.750000  0.747175  1
  Ta  Ta13  1  0.500688  0.250000  0.247175  1
  Ta  Ta14  1  0.499312  0.750000  0.752825  1
  Ta  Ta15  1  0.000688  0.250000  0.252825  1
  O  O16  1  0.037068  0.123146  0.044008  1
  O  O17  1  0.037068  0.376854  0.044008  1
  O  O18  1  0.041018  0.611028  0.578552  1
  O  O19  1  0.041018  0.888972  0.578552  1
  O  O20  1  0.248984  0.250000  0.340490  1
  O  O21  1  0.254386  0.115629  0.730819  1
  O  O22  1  0.254386  0.384371  0.730819  1
  O  O23  1  0.245614  0.615629  0.230819  1
  O  O24  1  0.245614  0.884371  0.230819  1
  O  O25  1  0.251016  0.750000  0.840490  1
  O  O26  1  0.458982  0.111028  0.078552  1
  O  O27  1  0.458982  0.388972  0.078552  1
  O  O28  1  0.462932  0.623146  0.544008  1
  O  O29  1  0.462932  0.876854  0.544008  1
  O  O30  1  0.537068  0.123146  0.455992  1
  O  O31  1  0.537068  0.376854  0.455992  1
  O  O32  1  0.541018  0.611028  0.921448  1
  O  O33  1  0.541018  0.888972  0.921448  1
  O  O34  1  0.748984  0.250000  0.159510  1
  O  O35  1  0.754386  0.115629  0.769181  1
  O  O36  1  0.754386  0.384371  0.769181  1
  O  O37  1  0.745614  0.615629  0.269181  1
  O  O38  1  0.745614  0.884371  0.269181  1
  O  O39  1  0.751016  0.750000  0.659510  1
  O  O40  1  0.958982  0.111028  0.421448  1
  O  O41  1  0.958982  0.388972  0.421448  1
  O  O42  1  0.962932  0.623146  0.955992  1
  O  O43  1  0.962932  0.876854  0.955992  1
