# generated using pymatgen
data_Lu4Mo4O11
_symmetry_space_group_name_H-M   'P 1'
_cell_length_a   5.66874811
_cell_length_b   10.66881893
_cell_length_c   15.86257182
_cell_angle_alpha   90.49133650
_cell_angle_beta   90.00000000
_cell_angle_gamma   90.00000000
_symmetry_Int_Tables_number   1
_chemical_formula_structural   Lu4Mo4O11
_chemical_formula_sum   'Lu16 Mo16 O44'
_cell_volume   959.31478230
_cell_formula_units_Z   4
loop_
 _symmetry_equiv_pos_site_id
 _symmetry_equiv_pos_as_xyz
  1  'x, y, z'
loop_
 _atom_site_type_symbol
 _atom_site_label
 _atom_site_symmetry_multiplicity
 _atom_site_fract_x
 _atom_site_fract_y
 _atom_site_fract_z
 _atom_site_occupancy
  Lu  Lu0  1  0.000000  0.899013  0.768757  1
  Lu  Lu1  1  0.000000  0.393297  0.420053  1
  Lu  Lu2  1  0.000000  0.404673  0.737882  1
  Lu  Lu3  1  0.500000  0.318072  0.276546  1
  Lu  Lu4  1  0.500000  0.075284  0.098320  1
  Lu  Lu5  1  0.500000  0.924716  0.901680  1
  Lu  Lu6  1  0.000000  0.606703  0.579947  1
  Lu  Lu7  1  0.500000  0.681928  0.723454  1
  Lu  Lu8  1  0.500000  0.578194  0.400915  1
  Lu  Lu9  1  0.000000  0.100987  0.231243  1
  Lu  Lu10  1  0.000000  0.887755  0.077024  1
  Lu  Lu11  1  0.500000  0.181157  0.775492  1
  Lu  Lu12  1  0.000000  0.112245  0.922976  1
  Lu  Lu13  1  0.500000  0.818843  0.224508  1
  Lu  Lu14  1  0.500000  0.421806  0.599085  1
  Lu  Lu15  1  0.000000  0.595327  0.262118  1
  Mo  Mo16  1  0.000000  0.414167  0.938542  1
  Mo  Mo17  1  0.500000  0.402261  0.928218  1
  Mo  Mo18  1  0.274440  0.636379  0.914403  1
  Mo  Mo19  1  0.000000  0.905098  0.567627  1
  Mo  Mo20  1  0.228412  0.859858  0.410335  1
  Mo  Mo21  1  0.000000  0.585833  0.061458  1
  Mo  Mo22  1  0.500000  0.095729  0.429955  1
  Mo  Mo23  1  0.500000  0.904271  0.570045  1
  Mo  Mo24  1  0.274440  0.363621  0.085597  1
  Mo  Mo25  1  0.771588  0.859858  0.410335  1
  Mo  Mo26  1  0.500000  0.597739  0.071782  1
  Mo  Mo27  1  0.725560  0.363621  0.085597  1
  Mo  Mo28  1  0.725560  0.636379  0.914403  1
  Mo  Mo29  1  0.771588  0.140142  0.589665  1
  Mo  Mo30  1  0.000000  0.094902  0.432373  1
  Mo  Mo31  1  0.228412  0.140142  0.589665  1
  O  O32  1  0.751315  0.537109  0.672813  1
  O  O33  1  0.248887  0.038308  0.828764  1
  O  O34  1  0.249253  0.500000  0.500000  1
  O  O35  1  0.500000  0.750841  0.986524  1
  O  O36  1  0.266394  0.223176  0.174780  1
  O  O37  1  0.000000  0.546733  0.844222  1
  O  O38  1  0.237627  0.693125  0.141012  1
  O  O39  1  0.733606  0.223176  0.174780  1
  O  O40  1  0.245225  0.000000  0.000000  1
  O  O41  1  0.500000  0.238643  0.525532  1
  O  O42  1  0.762373  0.693125  0.141012  1
  O  O43  1  0.500000  0.054430  0.660703  1
  O  O44  1  0.500000  0.249159  0.013476  1
  O  O45  1  0.500000  0.945570  0.339297  1
  O  O46  1  0.000000  0.038008  0.665362  1
  O  O47  1  0.000000  0.247665  0.517362  1
  O  O48  1  0.754775  0.000000  0.000000  1
  O  O49  1  0.000000  0.264143  0.021542  1
  O  O50  1  0.500000  0.459674  0.167852  1
  O  O51  1  0.244688  0.196202  0.357316  1
  O  O52  1  0.248887  0.961692  0.171236  1
  O  O53  1  0.237627  0.306875  0.858988  1
  O  O54  1  0.733606  0.776824  0.825220  1
  O  O55  1  0.248685  0.462891  0.327187  1
  O  O56  1  0.751113  0.961692  0.171236  1
  O  O57  1  0.500000  0.540326  0.832148  1
  O  O58  1  0.000000  0.961992  0.334638  1
  O  O59  1  0.000000  0.453267  0.155778  1
  O  O60  1  0.751315  0.462891  0.327187  1
  O  O61  1  0.762373  0.306875  0.858988  1
  O  O62  1  0.738967  0.279642  0.678823  1
  O  O63  1  0.755312  0.196202  0.357316  1
  O  O64  1  0.261034  0.279642  0.678823  1
  O  O65  1  0.750747  0.500000  0.500000  1
  O  O66  1  0.248685  0.537109  0.672813  1
  O  O67  1  0.261034  0.720358  0.321177  1
  O  O68  1  0.266394  0.776824  0.825220  1
  O  O69  1  0.000000  0.735857  0.978458  1
  O  O70  1  0.738967  0.720358  0.321177  1
  O  O71  1  0.244688  0.803798  0.642683  1
  O  O72  1  0.755312  0.803798  0.642683  1
  O  O73  1  0.500000  0.761357  0.474468  1
  O  O74  1  0.000000  0.752335  0.482638  1
  O  O75  1  0.751113  0.038308  0.828764  1
