# generated using pymatgen
data_Lu2TiO5
_symmetry_space_group_name_H-M   'P 1'
_cell_length_a   7.35927575
_cell_length_b   7.26648545
_cell_length_c   21.51392653
_cell_angle_alpha   59.29904188
_cell_angle_beta   60.23641996
_cell_angle_gamma   59.94395468
_symmetry_Int_Tables_number   1
_chemical_formula_structural   Lu2TiO5
_chemical_formula_sum   'Lu16 Ti8 O40'
_cell_volume   810.19452166
_cell_formula_units_Z   8
loop_
 _symmetry_equiv_pos_site_id
 _symmetry_equiv_pos_as_xyz
  1  'x, y, z'
loop_
 _atom_site_type_symbol
 _atom_site_label
 _atom_site_symmetry_multiplicity
 _atom_site_fract_x
 _atom_site_fract_y
 _atom_site_fract_z
 _atom_site_occupancy
  Lu  Lu0  1  0.545538  0.991125  0.992881  1
  Lu  Lu1  1  0.494509  0.508555  0.169559  1
  Lu  Lu2  1  0.528542  0.001553  0.326668  1
  Lu  Lu3  1  0.519328  0.480753  0.328439  1
  Lu  Lu4  1  0.542827  0.992674  0.159317  1
  Lu  Lu5  1  0.543124  0.491030  0.497520  1
  Lu  Lu6  1  0.988182  0.528647  0.158061  1
  Lu  Lu7  1  0.488288  0.006538  0.667497  1
  Lu  Lu8  1  0.476373  0.975882  0.511029  1
  Lu  Lu9  1  0.538439  0.481682  0.669743  1
  Lu  Lu10  1  0.007431  0.517128  0.330290  1
  Lu  Lu11  1  0.540518  0.486739  0.825125  1
  Lu  Lu12  1  0.993802  0.476044  0.508083  1
  Lu  Lu13  1  0.489470  0.528255  0.990233  1
  Lu  Lu14  1  0.542502  0.001881  0.824511  1
  Lu  Lu15  1  0.003022  0.504815  0.824121  1
  Ti  Ti16  1  0.035370  0.001253  0.995215  1
  Ti  Ti17  1  0.014781  0.006158  0.329089  1
  Ti  Ti18  1  0.012070  0.988568  0.669580  1
  Ti  Ti19  1  0.036777  0.473102  -0.000144  1
  Ti  Ti20  1  0.015975  0.976575  0.164727  1
  Ti  Ti21  1  0.997468  0.995412  0.836668  1
  Ti  Ti22  1  0.008194  0.503929  0.663480  1
  Ti  Ti23  1  0.039738  0.996915  0.494483  1
  O  O24  1  0.112073  0.651605  0.031449  1
  O  O25  1  0.931905  0.904942  0.274020  1
  O  O26  1  0.601147  0.164800  0.040813  1
  O  O27  1  0.138840  0.612668  0.199520  1
  O  O28  1  0.134580  0.626464  0.388385  1
  O  O29  1  0.322125  0.925392  0.123761  1
  O  O30  1  0.359307  0.359729  0.300410  1
  O  O31  1  0.107306  0.101924  0.552157  1
  O  O32  1  0.603992  0.611773  0.047061  1
  O  O33  1  0.635644  0.138488  0.199591  1
  O  O34  1  0.640805  0.632233  0.201188  1
  O  O35  1  0.634117  0.104289  0.387358  1
  O  O36  1  0.975896  0.302799  0.114231  1
  O  O37  1  0.315080  0.955220  0.277999  1
  O  O38  1  0.017139  0.699764  0.554413  1
  O  O39  1  0.997832  0.710988  0.694066  1
  O  O40  1  0.347350  0.881104  0.458562  1
  O  O41  1  0.323798  0.389519  0.634409  1
  O  O42  1  0.954358  0.080384  0.915736  1
  O  O43  1  0.584553  0.137303  0.540631  1
  O  O44  1  0.625506  0.619217  0.370808  1
  O  O45  1  0.922457  0.321710  0.281226  1
  O  O46  1  0.921350  0.912542  0.109132  1
  O  O47  1  0.647569  0.620659  0.543402  1
  O  O48  1  0.663574  0.104962  0.697816  1
  O  O49  1  0.357364  0.382727  0.792308  1
  O  O50  1  0.899068  0.345937  0.458379  1
  O  O51  1  0.324383  0.862497  0.647986  1
  O  O52  1  0.951204  0.727748  0.920913  1
  O  O53  1  0.313152  0.900971  0.795562  1
  O  O54  1  0.340512  0.373348  0.953467  1
  O  O55  1  0.662194  0.638145  0.700360  1
  O  O56  1  0.658146  0.121073  0.867436  1
  O  O57  1  0.938902  0.314201  0.644705  1
  O  O58  1  0.010412  0.021800  0.412385  1
  O  O59  1  0.646421  0.624773  0.869362  1
  O  O60  1  0.952381  0.326731  0.776969  1
  O  O61  1  0.343342  0.928218  0.954658  1
  O  O62  1  0.948500  0.885368  0.780074  1
  O  O63  1  0.983447  0.310770  0.967783  1
