# generated using pymatgen
data_LuCu5
_symmetry_space_group_name_H-M   'P 1'
_cell_length_a   4.93181850
_cell_length_b   4.93181801
_cell_length_c   4.93181820
_cell_angle_alpha   59.99999872
_cell_angle_beta   60.00000204
_cell_angle_gamma   60.00000187
_symmetry_Int_Tables_number   1
_chemical_formula_structural   LuCu5
_chemical_formula_sum   'Lu1 Cu5'
_cell_volume   84.82154872
_cell_formula_units_Z   1
loop_
 _symmetry_equiv_pos_site_id
 _symmetry_equiv_pos_as_xyz
  1  'x, y, z'
loop_
 _atom_site_type_symbol
 _atom_site_label
 _atom_site_symmetry_multiplicity
 _atom_site_fract_x
 _atom_site_fract_y
 _atom_site_fract_z
 _atom_site_occupancy
  Lu  Lu0  1  0.000000  0.000000  0.000000  1
  Cu  Cu1  1  0.623983  0.623983  0.128050  1
  Cu  Cu2  1  0.128050  0.623983  0.623983  1
  Cu  Cu3  1  0.250000  0.250000  0.250000  1
  Cu  Cu4  1  0.623983  0.128050  0.623983  1
  Cu  Cu5  1  0.623983  0.623983  0.623983  1
