# generated using pymatgen
data_CeZn11
_symmetry_space_group_name_H-M   'P 1'
_cell_length_a   6.94343371
_cell_length_b   8.27246601
_cell_length_c   8.25995538
_cell_angle_alpha   79.78477656
_cell_angle_beta   65.12879422
_cell_angle_gamma   65.07016042
_symmetry_Int_Tables_number   1
_chemical_formula_structural   CeZn11
_chemical_formula_sum   'Ce2 Zn22'
_cell_volume   390.33715473
_cell_formula_units_Z   2
loop_
 _symmetry_equiv_pos_site_id
 _symmetry_equiv_pos_as_xyz
  1  'x, y, z'
loop_
 _atom_site_type_symbol
 _atom_site_label
 _atom_site_symmetry_multiplicity
 _atom_site_fract_x
 _atom_site_fract_y
 _atom_site_fract_z
 _atom_site_occupancy
  Ce  Ce0  1  0.376560  0.249086  0.750489  1
  Ce  Ce1  1  0.627317  0.749055  0.248702  1
  Zn  Zn2  1  0.719929  0.836105  0.576760  1
  Zn  Zn3  1  0.003810  0.998272  0.001490  1
  Zn  Zn4  1  0.203503  0.078468  0.165124  1
  Zn  Zn5  1  0.134141  0.423230  0.164996  1
  Zn  Zn6  1  0.203643  0.666817  0.575630  1
  Zn  Zn7  1  0.869136  0.578405  0.834662  1
  Zn  Zn8  1  0.135658  0.664795  0.922962  1
  Zn  Zn9  1  0.128017  0.748216  0.251495  1
  Zn  Zn10  1  0.867105  0.334303  0.074283  1
  Zn  Zn11  1  0.880167  0.246978  0.747168  1
  Zn  Zn12  1  0.559585  0.576675  0.661524  1
  Zn  Zn13  1  0.500723  0.500243  0.996108  1
  Zn  Zn14  1  0.281062  0.163842  0.424046  1
  Zn  Zn15  1  0.799568  0.335231  0.420032  1
  Zn  Zn16  1  0.720132  0.076491  0.332196  1
  Zn  Zn17  1  0.445940  0.421770  0.334315  1
  Zn  Zn18  1  0.559888  0.164907  0.073041  1
  Zn  Zn19  1  0.278338  0.922747  0.666394  1
  Zn  Zn20  1  0.803574  0.923293  0.832124  1
  Zn  Zn21  1  0.448484  0.835241  0.923530  1
  Zn  Zn22  1  0.999297  0.001613  0.498459  1
  Zn  Zn23  1  0.001234  0.498454  0.500939  1
