# generated using pymatgen
data_CeZr6O14
_symmetry_space_group_name_H-M   'P 1'
_cell_length_a   3.68250437
_cell_length_b   25.72219683
_cell_length_c   5.29756432
_cell_angle_alpha   90.00000000
_cell_angle_beta   90.00000000
_cell_angle_gamma   90.00000000
_symmetry_Int_Tables_number   1
_chemical_formula_structural   CeZr6O14
_chemical_formula_sum   'Ce2 Zr12 O28'
_cell_volume   501.79642910
_cell_formula_units_Z   2
loop_
 _symmetry_equiv_pos_site_id
 _symmetry_equiv_pos_as_xyz
  1  'x, y, z'
loop_
 _atom_site_type_symbol
 _atom_site_label
 _atom_site_symmetry_multiplicity
 _atom_site_fract_x
 _atom_site_fract_y
 _atom_site_fract_z
 _atom_site_occupancy
  Ce  Ce0  1  0.500000  0.929337  0.501052  1
  Ce  Ce1  1  0.500000  0.642091  0.501052  1
  Zr  Zr2  1  0.000000  0.002838  0.000288  1
  Zr  Zr3  1  0.000000  0.144126  0.999176  1
  Zr  Zr4  1  0.000000  0.285714  0.999468  1
  Zr  Zr5  1  0.000000  0.427303  0.999176  1
  Zr  Zr6  1  0.000000  0.568591  0.000288  1
  Zr  Zr7  1  0.000000  0.715547  0.999945  1
  Zr  Zr8  1  0.000000  0.855881  0.999945  1
  Zr  Zr9  1  0.500000  0.214963  0.500546  1
  Zr  Zr10  1  0.500000  0.497856  0.500036  1
  Zr  Zr11  1  0.500000  0.785714  0.499821  1
  Zr  Zr12  1  0.500000  0.073573  0.500036  1
  Zr  Zr13  1  0.500000  0.356466  0.500546  1
  O  O14  1  0.000000  0.214948  0.198057  1
  O  O15  1  0.000000  0.073941  0.201456  1
  O  O16  1  0.000000  0.072442  0.699436  1
  O  O17  1  0.000000  0.356480  0.198057  1
  O  O18  1  0.000000  0.356834  0.697560  1
  O  O19  1  0.000000  0.497488  0.201456  1
  O  O20  1  0.000000  0.498986  0.699436  1
  O  O21  1  0.000000  0.642072  0.209523  1
  O  O22  1  0.000000  0.642454  0.737690  1
  O  O23  1  0.000000  0.785714  0.206000  1
  O  O24  1  0.000000  0.214594  0.697560  1
  O  O25  1  0.000000  0.785714  0.702168  1
  O  O26  1  0.000000  0.929357  0.209523  1
  O  O27  1  0.000000  0.928974  0.737690  1
  O  O28  1  0.500000  0.716711  0.279710  1
  O  O29  1  0.500000  0.717838  0.792291  1
  O  O30  1  0.500000  0.854717  0.279710  1
  O  O31  1  0.500000  0.004541  0.281609  1
  O  O32  1  0.500000  0.004332  0.793929  1
  O  O33  1  0.500000  0.144493  0.300538  1
  O  O34  1  0.500000  0.143316  0.801201  1
  O  O35  1  0.500000  0.285714  0.301780  1
  O  O36  1  0.500000  0.285714  0.802680  1
  O  O37  1  0.500000  0.426935  0.300538  1
  O  O38  1  0.500000  0.428113  0.801201  1
  O  O39  1  0.500000  0.566888  0.281609  1
  O  O40  1  0.500000  0.567097  0.793929  1
  O  O41  1  0.500000  0.853590  0.792291  1
