# generated using pymatgen
data_LuMn5
_symmetry_space_group_name_H-M   'P 1'
_cell_length_a   4.84504943
_cell_length_b   4.84504943
_cell_length_c   7.95778085
_cell_angle_alpha   90.00000000
_cell_angle_beta   90.00000000
_cell_angle_gamma   119.99999994
_symmetry_Int_Tables_number   1
_chemical_formula_structural   LuMn5
_chemical_formula_sum   'Lu2 Mn10'
_cell_volume   161.77783942
_cell_formula_units_Z   2
loop_
 _symmetry_equiv_pos_site_id
 _symmetry_equiv_pos_as_xyz
  1  'x, y, z'
loop_
 _atom_site_type_symbol
 _atom_site_label
 _atom_site_symmetry_multiplicity
 _atom_site_fract_x
 _atom_site_fract_y
 _atom_site_fract_z
 _atom_site_occupancy
  Mn  Mn0  1  0.828746  0.171254  0.448972  1
  Mn  Mn1  1  0.657493  0.828746  0.948972  1
  Mn  Mn2  1  0.000000  0.000000  0.202559  1
  Mn  Mn3  1  0.000000  0.000000  0.702559  1
  Mn  Mn4  1  0.333333  0.666667  0.628878  1
  Mn  Mn5  1  0.666667  0.333333  0.128878  1
  Mn  Mn6  1  0.171254  0.828746  0.948972  1
  Mn  Mn7  1  0.342507  0.171254  0.448972  1
  Mn  Mn8  1  0.828746  0.657493  0.448972  1
  Mn  Mn9  1  0.171254  0.342507  0.948972  1
  Lu  Lu10  1  0.666667  0.333333  0.757648  1
  Lu  Lu11  1  0.333333  0.666667  0.257648  1
