# generated using pymatgen
data_LuNbO4
_symmetry_space_group_name_H-M   'P 1'
_cell_length_a   6.64358409
_cell_length_b   6.48921372
_cell_length_c   6.64358409
_cell_angle_alpha   132.84761347
_cell_angle_beta   69.63193805
_cell_angle_gamma   134.43239197
_symmetry_Int_Tables_number   1
_chemical_formula_structural   LuNbO4
_chemical_formula_sum   'Lu2 Nb2 O8'
_cell_volume   145.39603439
_cell_formula_units_Z   2
loop_
 _symmetry_equiv_pos_site_id
 _symmetry_equiv_pos_as_xyz
  1  'x, y, z'
loop_
 _atom_site_type_symbol
 _atom_site_label
 _atom_site_symmetry_multiplicity
 _atom_site_fract_x
 _atom_site_fract_y
 _atom_site_fract_z
 _atom_site_occupancy
  Lu  Lu0  1  0.878706  0.750000  0.628706  1
  Lu  Lu1  1  0.121294  0.250000  0.371294  1
  Nb  Nb2  1  0.357264  0.750000  0.107264  1
  Nb  Nb3  1  0.642736  0.250000  0.892736  1
  O  O4  1  0.494294  0.711088  0.779481  1
  O  O5  1  0.068393  0.788912  0.283206  1
  O  O6  1  0.505706  0.288912  0.220519  1
  O  O7  1  0.931607  0.211088  0.716794  1
  O  O8  1  0.791815  0.667362  0.950922  1
  O  O9  1  0.283560  0.832638  0.624453  1
  O  O10  1  0.208185  0.332638  0.049078  1
  O  O11  1  0.716440  0.167362  0.375547  1
