# generated using pymatgen
data_LuTa7O19
_symmetry_space_group_name_H-M   'P 1'
_cell_length_a   6.24806041
_cell_length_b   6.24806226
_cell_length_c   20.03968764
_cell_angle_alpha   89.99974034
_cell_angle_beta   89.99984126
_cell_angle_gamma   119.99999378
_symmetry_Int_Tables_number   1
_chemical_formula_structural   LuTa7O19
_chemical_formula_sum   'Lu2 Ta14 O38'
_cell_volume   677.50448656
_cell_formula_units_Z   2
loop_
 _symmetry_equiv_pos_site_id
 _symmetry_equiv_pos_as_xyz
  1  'x, y, z'
loop_
 _atom_site_type_symbol
 _atom_site_label
 _atom_site_symmetry_multiplicity
 _atom_site_fract_x
 _atom_site_fract_y
 _atom_site_fract_z
 _atom_site_occupancy
  Lu  Lu0  1  0.333297  0.666696  0.000002  1
  Lu  Lu1  1  0.333315  0.666616  0.500002  1
  Ta  Ta2  1  0.360342  0.360840  0.344836  1
  Ta  Ta3  1  0.360334  0.360840  0.155160  1
  Ta  Ta4  1  0.639168  0.639671  0.844840  1
  Ta  Ta5  1  0.639171  0.639675  0.655160  1
  Ta  Ta6  1  0.360341  0.999499  0.844836  1
  Ta  Ta7  1  0.360346  0.999494  0.655160  1
  Ta  Ta8  1  0.666668  0.333327  0.500002  1
  Ta  Ta9  1  0.666666  0.333337  0.000001  1
  Ta  Ta10  1  0.639165  0.999500  0.155158  1
  Ta  Ta11  1  0.639159  0.999499  0.344836  1
  Ta  Ta12  1  0.000496  0.639660  0.155164  1
  Ta  Ta13  1  0.000509  0.639665  0.344838  1
  Ta  Ta14  1  0.000501  0.360841  0.844841  1
  Ta  Ta15  1  0.000508  0.360844  0.655164  1
  O  O16  1  0.999477  0.752214  0.653057  1
  O  O17  1  0.999467  0.752200  0.846935  1
  O  O18  1  0.042954  0.626513  0.250004  1
  O  O19  1  0.247797  0.000523  0.346937  1
  O  O20  1  0.247776  0.000527  0.153059  1
  O  O21  1  0.042963  0.416446  0.749993  1
  O  O22  1  0.999478  0.247261  0.153056  1
  O  O23  1  0.999472  0.247265  0.346936  1
  O  O24  1  0.373480  0.957035  0.750007  1
  O  O25  1  0.333343  0.666672  0.130516  1
  O  O26  1  0.333321  0.666665  0.869488  1
  O  O27  1  0.333337  0.666672  0.630513  1
  O  O28  1  0.333328  0.666673  0.369488  1
  O  O29  1  0.583560  0.957035  0.250006  1
  O  O30  1  0.247780  0.247263  0.653060  1
  O  O31  1  0.247794  0.247256  0.846933  1
  O  O32  1  0.373471  0.416442  0.249997  1
  O  O33  1  0.426513  0.386491  0.054881  1
  O  O34  1  0.426501  0.386481  0.445125  1
  O  O35  1  0.752732  0.000532  0.653059  1
  O  O36  1  0.752725  0.000524  0.846942  1
  O  O37  1  0.583567  0.626529  0.750005  1
  O  O38  1  0.613512  0.573497  0.945127  1
  O  O39  1  0.613511  0.573488  0.554866  1
  O  O40  1  0.752750  0.752213  0.346934  1
  O  O41  1  0.752733  0.752206  0.153062  1
  O  O42  1  0.426518  0.040024  0.554869  1
  O  O43  1  0.426501  0.040004  0.945133  1
  O  O44  1  0.666663  0.333335  0.334141  1
  O  O45  1  0.666672  0.333332  0.834144  1
  O  O46  1  0.666679  0.333345  0.665860  1
  O  O47  1  0.666661  0.333328  0.165865  1
  O  O48  1  0.613503  0.040021  0.054882  1
  O  O49  1  0.613511  0.040008  0.445129  1
  O  O50  1  0.959999  0.573511  0.054871  1
  O  O51  1  0.959992  0.573488  0.445129  1
  O  O52  1  0.959983  0.386491  0.945120  1
  O  O53  1  0.959995  0.386490  0.554872  1
