# generated using pymatgen
data_Ce16Ru9
_symmetry_space_group_name_H-M   'P 1'
_cell_length_a   10.83083739
_cell_length_b   10.83083779
_cell_length_c   10.83083766
_cell_angle_alpha   77.11614315
_cell_angle_beta   77.11614263
_cell_angle_gamma   77.11614310
_symmetry_Int_Tables_number   1
_chemical_formula_structural   Ce16Ru9
_chemical_formula_sum   'Ce32 Ru18'
_cell_volume   1187.12825477
_cell_formula_units_Z   2
loop_
 _symmetry_equiv_pos_site_id
 _symmetry_equiv_pos_as_xyz
  1  'x, y, z'
loop_
 _atom_site_type_symbol
 _atom_site_label
 _atom_site_symmetry_multiplicity
 _atom_site_fract_x
 _atom_site_fract_y
 _atom_site_fract_z
 _atom_site_occupancy
  Ce  Ce0  1  0.794546  0.500000  0.205454  1
  Ce  Ce1  1  0.796674  0.049757  0.796674  1
  Ce  Ce2  1  0.803952  0.531568  0.531568  1
  Ce  Ce3  1  0.796674  0.796674  0.049757  1
  Ce  Ce4  1  0.280678  0.000000  0.719322  1
  Ce  Ce5  1  0.280678  0.719322  0.000000  1
  Ce  Ce6  1  0.500000  0.794546  0.205454  1
  Ce  Ce7  1  1.000000  0.280678  0.719322  1
  Ce  Ce8  1  0.196048  0.468432  0.468432  1
  Ce  Ce9  1  0.531568  0.531568  0.803952  1
  Ce  Ce10  1  0.049757  0.796674  0.796674  1
  Ce  Ce11  1  0.000000  0.719322  0.280678  1
  Ce  Ce12  1  0.205454  0.794546  0.500000  1
  Ce  Ce13  1  0.719322  1.000000  0.280678  1
  Ce  Ce14  1  0.468432  0.468432  0.196048  1
  Ce  Ce15  1  0.794546  0.205454  0.500000  1
  Ce  Ce16  1  0.567856  0.842508  0.842508  1
  Ce  Ce17  1  0.500000  0.205454  0.794546  1
  Ce  Ce18  1  0.719322  0.280678  1.000000  1
  Ce  Ce19  1  0.157492  0.157492  0.432144  1
  Ce  Ce20  1  0.531568  0.803952  0.531568  1
  Ce  Ce21  1  0.950243  0.203326  0.203326  1
  Ce  Ce22  1  0.842508  0.842508  0.567856  1
  Ce  Ce23  1  0.432144  0.157492  0.157492  1
  Ce  Ce24  1  0.205454  0.500000  0.794546  1
  Ce  Ce25  1  0.203326  0.950243  0.203326  1
  Ce  Ce26  1  0.468432  0.196048  0.468432  1
  Ce  Ce27  1  0.500000  0.500000  0.500000  1
  Ce  Ce28  1  0.157492  0.432144  0.157492  1
  Ce  Ce29  1  0.203326  0.203326  0.950243  1
  Ce  Ce30  1  0.000000  0.000000  0.000000  1
  Ce  Ce31  1  0.842508  0.567856  0.842508  1
  Ru  Ru32  1  0.987681  0.363605  0.987681  1
  Ru  Ru33  1  0.350859  0.728308  0.728308  1
  Ru  Ru34  1  0.004194  0.623903  0.623903  1
  Ru  Ru35  1  0.376097  0.995806  0.376097  1
  Ru  Ru36  1  0.271692  0.649141  0.271692  1
  Ru  Ru37  1  0.728308  0.350859  0.728308  1
  Ru  Ru38  1  0.271692  0.271692  0.649141  1
  Ru  Ru39  1  0.995806  0.376097  0.376097  1
  Ru  Ru40  1  0.649141  0.271692  0.271692  1
  Ru  Ru41  1  0.012319  0.636395  0.012319  1
  Ru  Ru42  1  0.623903  0.623903  0.004194  1
  Ru  Ru43  1  0.376097  0.376097  0.995806  1
  Ru  Ru44  1  0.363605  0.987681  0.987681  1
  Ru  Ru45  1  0.728308  0.728308  0.350859  1
  Ru  Ru46  1  0.987681  0.987681  0.363605  1
  Ru  Ru47  1  0.012319  0.012319  0.636395  1
  Ru  Ru48  1  0.636395  0.012319  0.012319  1
  Ru  Ru49  1  0.623903  0.004194  0.623903  1
