# generated using pymatgen
data_LuWO4
_symmetry_space_group_name_H-M   'P 1'
_cell_length_a   5.17957290
_cell_length_b   6.53928908
_cell_length_c   5.17957290
_cell_angle_alpha   66.66946860
_cell_angle_beta   90.00000000
_cell_angle_gamma   113.33053140
_symmetry_Int_Tables_number   1
_chemical_formula_structural   LuWO4
_chemical_formula_sum   'Lu2 W2 O8'
_cell_volume   145.33809997
_cell_formula_units_Z   2
loop_
 _symmetry_equiv_pos_site_id
 _symmetry_equiv_pos_as_xyz
  1  'x, y, z'
loop_
 _atom_site_type_symbol
 _atom_site_label
 _atom_site_symmetry_multiplicity
 _atom_site_fract_x
 _atom_site_fract_y
 _atom_site_fract_z
 _atom_site_occupancy
  Lu  Lu0  1  0.875000  0.250000  0.375000  1
  Lu  Lu1  1  0.125000  0.750000  0.625000  1
  W  W2  1  0.625000  0.750000  0.125000  1
  W  W3  1  0.375000  0.250000  0.875000  1
  O  O4  1  0.480607  0.071801  0.218554  1
  O  O5  1  0.790356  0.571801  0.019393  1
  O  O6  1  0.281446  0.571801  0.408807  1
  O  O7  1  0.908807  0.928199  0.290356  1
  O  O8  1  0.091193  0.071801  0.709644  1
  O  O9  1  0.718554  0.428199  0.591193  1
  O  O10  1  0.209644  0.428199  0.980607  1
  O  O11  1  0.519393  0.928199  0.781446  1
