# generated using pymatgen
data_Lu(BRu)4
_symmetry_space_group_name_H-M   'P 1'
_cell_length_a   7.45673288
_cell_length_b   7.45673321
_cell_length_c   9.17382181
_cell_angle_alpha   113.97974211
_cell_angle_beta   113.97974324
_cell_angle_gamma   89.99999967
_symmetry_Int_Tables_number   1
_chemical_formula_structural   Lu(BRu)4
_chemical_formula_sum   'Lu4 B16 Ru16'
_cell_volume   417.42009256
_cell_formula_units_Z   4
loop_
 _symmetry_equiv_pos_site_id
 _symmetry_equiv_pos_as_xyz
  1  'x, y, z'
loop_
 _atom_site_type_symbol
 _atom_site_label
 _atom_site_symmetry_multiplicity
 _atom_site_fract_x
 _atom_site_fract_y
 _atom_site_fract_z
 _atom_site_occupancy
  Lu  Lu0  1  0.375000  0.125000  0.750000  1
  Lu  Lu1  1  0.875000  0.625000  0.750000  1
  Lu  Lu2  1  0.125000  0.375000  0.250000  1
  Lu  Lu3  1  0.625000  0.875000  0.250000  1
  B  B4  1  0.568442  0.625664  0.412281  1
  B  B5  1  0.786617  0.343840  0.912281  1
  B  B6  1  0.374336  0.156160  0.087719  1
  B  B7  1  0.625664  0.843840  0.912281  1
  B  B8  1  0.125664  0.068442  0.912281  1
  B  B9  1  0.068442  0.786617  0.412281  1
  B  B10  1  0.931558  0.213383  0.587719  1
  B  B11  1  0.431558  0.374336  0.587719  1
  B  B12  1  0.713383  0.431558  0.087719  1
  B  B13  1  0.874336  0.931558  0.087719  1
  B  B14  1  0.656160  0.874336  0.587719  1
  B  B15  1  0.286617  0.568442  0.912281  1
  B  B16  1  0.213383  0.656160  0.087719  1
  B  B17  1  0.843840  0.286617  0.412281  1
  B  B18  1  0.343840  0.125664  0.412281  1
  B  B19  1  0.156160  0.713383  0.587719  1
  Ru  Ru20  1  0.677748  0.162544  0.126054  1
  Ru  Ru21  1  0.162544  0.448305  0.626054  1
  Ru  Ru22  1  0.948305  0.662544  0.126054  1
  Ru  Ru23  1  0.051695  0.337456  0.873946  1
  Ru  Ru24  1  0.036490  0.051695  0.373946  1
  Ru  Ru25  1  0.448305  0.463510  0.126054  1
  Ru  Ru26  1  0.337456  0.822252  0.373946  1
  Ru  Ru27  1  0.963510  0.948305  0.626054  1
  Ru  Ru28  1  0.322252  0.837456  0.873946  1
  Ru  Ru29  1  0.463510  0.677748  0.626054  1
  Ru  Ru30  1  0.177748  0.963510  0.126054  1
  Ru  Ru31  1  0.822252  0.036490  0.873946  1
  Ru  Ru32  1  0.536490  0.322252  0.373946  1
  Ru  Ru33  1  0.662544  0.177748  0.626054  1
  Ru  Ru34  1  0.551695  0.536490  0.873946  1
  Ru  Ru35  1  0.837456  0.551695  0.373946  1
