# generated using pymatgen
data_LuCoO3
_symmetry_space_group_name_H-M   'P 1'
_cell_length_a   5.06722872
_cell_length_b   5.45033595
_cell_length_c   7.30563918
_cell_angle_alpha   89.99838220
_cell_angle_beta   89.99549732
_cell_angle_gamma   89.99908146
_symmetry_Int_Tables_number   1
_chemical_formula_structural   LuCoO3
_chemical_formula_sum   'Lu4 Co4 O12'
_cell_volume   201.76786462
_cell_formula_units_Z   4
loop_
 _symmetry_equiv_pos_site_id
 _symmetry_equiv_pos_as_xyz
  1  'x, y, z'
loop_
 _atom_site_type_symbol
 _atom_site_label
 _atom_site_symmetry_multiplicity
 _atom_site_fract_x
 _atom_site_fract_y
 _atom_site_fract_z
 _atom_site_occupancy
  Lu  Lu0  1  0.524118  0.579959  0.250000  1
  Lu  Lu1  1  0.975878  0.079964  0.249998  1
  Lu  Lu2  1  0.475885  0.420035  0.749999  1
  Lu  Lu3  1  0.024121  0.920041  0.750003  1
  Co  Co4  1  -0.000001  0.499998  0.499998  1
  Co  Co5  1  -0.000001  0.499997  1.000001  1
  Co  Co6  1  0.500001  1.000003  -0.000003  1
  Co  Co7  1  0.500001  1.000003  0.500001  1
  O  O8  1  0.313221  0.694635  0.556116  1
  O  O9  1  0.885227  0.537291  0.749995  1
  O  O10  1  0.813211  0.805364  0.056119  1
  O  O11  1  0.313244  0.694665  0.943875  1
  O  O12  1  0.813245  0.805340  0.443878  1
  O  O13  1  0.114772  0.462707  0.250005  1
  O  O14  1  0.686758  0.305335  0.056122  1
  O  O15  1  0.186756  0.194661  0.556123  1
  O  O16  1  0.686781  0.305367  0.443885  1
  O  O17  1  0.614772  0.037289  0.750006  1
  O  O18  1  0.385223  0.962711  0.249995  1
  O  O19  1  0.186788  0.194636  0.943882  1
