# generated using pymatgen
data_LuNiB4
_symmetry_space_group_name_H-M   'P 1'
_cell_length_a   5.83950398
_cell_length_b   11.33214418
_cell_length_c   3.36240712
_cell_angle_alpha   89.99927556
_cell_angle_beta   89.99946194
_cell_angle_gamma   89.99959719
_symmetry_Int_Tables_number   1
_chemical_formula_structural   LuNiB4
_chemical_formula_sum   'Lu4 Ni4 B16'
_cell_volume   222.50426848
_cell_formula_units_Z   4
loop_
 _symmetry_equiv_pos_site_id
 _symmetry_equiv_pos_as_xyz
  1  'x, y, z'
loop_
 _atom_site_type_symbol
 _atom_site_label
 _atom_site_symmetry_multiplicity
 _atom_site_fract_x
 _atom_site_fract_y
 _atom_site_fract_z
 _atom_site_occupancy
  Lu  Lu0  1  0.127343  0.150185  -0.000026  1
  Lu  Lu1  1  0.872649  0.849814  0.000003  1
  Lu  Lu2  1  0.627350  0.349815  0.999991  1
  Lu  Lu3  1  0.372656  0.650188  0.000012  1
  Ni  Ni4  1  0.134491  0.411253  0.999991  1
  Ni  Ni5  1  0.865491  0.588742  0.000033  1
  Ni  Ni6  1  0.634506  0.088739  0.000005  1
  Ni  Ni7  1  0.365529  0.911257  0.999972  1
  B  B8  1  0.363147  0.467286  0.500006  1
  B  B9  1  0.636845  0.532718  0.500006  1
  B  B10  1  0.863133  0.032717  0.500009  1
  B  B11  1  0.136855  0.967287  0.500007  1
  B  B12  1  0.478482  0.192009  0.500014  1
  B  B13  1  0.521525  0.807981  0.500002  1
  B  B14  1  0.978478  0.307985  0.499991  1
  B  B15  1  0.021523  0.692021  0.500007  1
  B  B16  1  0.285868  0.314736  0.500002  1
  B  B17  1  0.714126  0.685272  0.499995  1
  B  B18  1  0.785853  0.185262  0.499993  1
  B  B19  1  0.214135  0.814731  0.500008  1
  B  B20  1  0.386210  0.047682  0.500002  1
  B  B21  1  0.613798  0.952326  0.499996  1
  B  B22  1  0.886210  0.452319  0.499997  1
  B  B23  1  0.113797  0.547680  0.500001  1
