# generated using pymatgen
data_LuNiO3
_symmetry_space_group_name_H-M   'P 1'
_cell_length_a   5.10104465
_cell_length_b   5.62949792
_cell_length_c   7.31846465
_cell_angle_alpha   90.00000000
_cell_angle_beta   90.00000000
_cell_angle_gamma   90.00000000
_symmetry_Int_Tables_number   1
_chemical_formula_structural   LuNiO3
_chemical_formula_sum   'Lu4 Ni4 O12'
_cell_volume   210.15937461
_cell_formula_units_Z   4
loop_
 _symmetry_equiv_pos_site_id
 _symmetry_equiv_pos_as_xyz
  1  'x, y, z'
loop_
 _atom_site_type_symbol
 _atom_site_label
 _atom_site_symmetry_multiplicity
 _atom_site_fract_x
 _atom_site_fract_y
 _atom_site_fract_z
 _atom_site_occupancy
  Lu  Lu0  1  0.527141  0.587162  0.250000  1
  Lu  Lu1  1  0.972859  0.087162  0.250000  1
  Lu  Lu2  1  0.472859  0.412838  0.750000  1
  Lu  Lu3  1  0.027141  0.912838  0.750000  1
  Ni  Ni4  1  0.000000  0.500000  -0.000000  1
  Ni  Ni5  1  0.500000  0.000000  0.500000  1
  Ni  Ni6  1  0.000000  0.500000  0.500000  1
  Ni  Ni7  1  0.500000  0.000000  -0.000000  1
  O  O8  1  0.379341  0.961331  0.250000  1
  O  O9  1  0.120659  0.461331  0.250000  1
  O  O10  1  0.620659  0.038669  0.750000  1
  O  O11  1  0.879341  0.538669  0.750000  1
  O  O12  1  0.805719  0.814613  0.058179  1
  O  O13  1  0.694281  0.314613  0.441821  1
  O  O14  1  0.194281  0.185387  0.558179  1
  O  O15  1  0.305719  0.685387  0.941821  1
  O  O16  1  0.194281  0.185387  0.941821  1
  O  O17  1  0.305719  0.685387  0.558179  1
  O  O18  1  0.805719  0.814613  0.441821  1
  O  O19  1  0.694281  0.314613  0.058179  1
