# generated using pymatgen
data_Lu2TiO5
_symmetry_space_group_name_H-M   'P 1'
_cell_length_a   4.03596316
_cell_length_b   5.73717846
_cell_length_c   10.36085528
_cell_angle_alpha   90.00051340
_cell_angle_beta   89.99978005
_cell_angle_gamma   69.42624789
_symmetry_Int_Tables_number   1
_chemical_formula_structural   Lu2TiO5
_chemical_formula_sum   'Lu4 Ti2 O10'
_cell_volume   224.60497027
_cell_formula_units_Z   2
loop_
 _symmetry_equiv_pos_site_id
 _symmetry_equiv_pos_as_xyz
  1  'x, y, z'
loop_
 _atom_site_type_symbol
 _atom_site_label
 _atom_site_symmetry_multiplicity
 _atom_site_fract_x
 _atom_site_fract_y
 _atom_site_fract_z
 _atom_site_occupancy
  Lu  Lu0  1  0.142675  0.714941  0.931721  1
  Lu  Lu1  1  0.142659  0.714943  0.568280  1
  Lu  Lu2  1  0.857325  0.285059  0.068280  1
  Lu  Lu3  1  0.857329  0.285053  0.431718  1
  Ti  Ti4  1  0.175554  0.648920  0.249998  1
  Ti  Ti5  1  0.824451  0.351083  0.749998  1
  O  O6  1  0.051267  0.897677  0.377053  1
  O  O7  1  0.051274  0.897671  0.122939  1
  O  O8  1  0.705612  0.588962  0.912100  1
  O  O9  1  0.705597  0.588964  0.587910  1
  O  O10  1  0.267836  0.464502  0.749999  1
  O  O11  1  0.732161  0.535500  0.250000  1
  O  O12  1  0.294393  0.411031  0.087912  1
  O  O13  1  0.294399  0.411037  0.412088  1
  O  O14  1  0.948726  0.102330  0.622948  1
  O  O15  1  0.948741  0.102328  0.877055  1
