# generated using pymatgen
data_LuTiO3
_symmetry_space_group_name_H-M   'P 1'
_cell_length_a   5.26457258
_cell_length_b   5.64799696
_cell_length_c   7.62027059
_cell_angle_alpha   90.00061427
_cell_angle_beta   90.00063313
_cell_angle_gamma   90.00122293
_symmetry_Int_Tables_number   1
_chemical_formula_structural   LuTiO3
_chemical_formula_sum   'Lu4 Ti4 O12'
_cell_volume   226.58333501
_cell_formula_units_Z   4
loop_
 _symmetry_equiv_pos_site_id
 _symmetry_equiv_pos_as_xyz
  1  'x, y, z'
loop_
 _atom_site_type_symbol
 _atom_site_label
 _atom_site_symmetry_multiplicity
 _atom_site_fract_x
 _atom_site_fract_y
 _atom_site_fract_z
 _atom_site_occupancy
  Lu  Lu0  1  0.977771  0.426629  0.750004  1
  Lu  Lu1  1  0.522237  0.926620  0.750004  1
  Lu  Lu2  1  0.477765  0.073373  0.249997  1
  Lu  Lu3  1  0.022231  0.573374  0.249992  1
  Ti  Ti4  1  0.999998  0.000003  -0.000001  1
  Ti  Ti5  1  -0.000001  -0.000000  0.500002  1
  Ti  Ti6  1  0.500000  0.500002  0.000001  1
  Ti  Ti7  1  0.500001  0.499999  0.499999  1
  O  O8  1  0.134746  0.057050  0.750002  1
  O  O9  1  0.183377  0.308246  0.063146  1
  O  O10  1  0.183371  0.308256  0.436848  1
  O  O11  1  0.316625  0.808271  0.436843  1
  O  O12  1  0.316637  0.808273  0.063150  1
  O  O13  1  0.365241  0.557044  0.750008  1
  O  O14  1  0.634759  0.442943  0.249996  1
  O  O15  1  0.683369  0.191738  0.936851  1
  O  O16  1  0.683369  0.191739  0.563151  1
  O  O17  1  0.816629  0.691739  0.563151  1
  O  O18  1  0.816630  0.691746  0.936863  1
  O  O19  1  0.865244  0.942956  0.249995  1
