# generated using pymatgen
data_Lu2Ti2O7
_symmetry_space_group_name_H-M   'P 1'
_cell_length_a   7.10155900
_cell_length_b   7.10155900
_cell_length_c   7.10155900
_cell_angle_alpha   59.99999999
_cell_angle_beta   60.00000000
_cell_angle_gamma   59.99999999
_symmetry_Int_Tables_number   1
_chemical_formula_structural   Lu2Ti2O7
_chemical_formula_sum   'Lu4 Ti4 O14'
_cell_volume   253.24804448
_cell_formula_units_Z   2
loop_
 _symmetry_equiv_pos_site_id
 _symmetry_equiv_pos_as_xyz
  1  'x, y, z'
loop_
 _atom_site_type_symbol
 _atom_site_label
 _atom_site_symmetry_multiplicity
 _atom_site_fract_x
 _atom_site_fract_y
 _atom_site_fract_z
 _atom_site_occupancy
  O  O0  1  0.625000  0.625000  0.625000  1
  O  O1  1  0.375000  0.375000  0.375000  1
  O  O2  1  0.333545  0.916455  0.916455  1
  O  O3  1  0.083545  0.666455  0.666455  1
  O  O4  1  0.916455  0.333545  0.916455  1
  O  O5  1  0.916455  0.916455  0.333545  1
  O  O6  1  0.333545  0.333545  0.916455  1
  O  O7  1  0.333545  0.916455  0.333545  1
  O  O8  1  0.916455  0.333545  0.333545  1
  O  O9  1  0.666455  0.666455  0.083545  1
  O  O10  1  0.083545  0.083545  0.666455  1
  O  O11  1  0.666455  0.083545  0.083545  1
  O  O12  1  0.666455  0.083545  0.666455  1
  O  O13  1  0.083545  0.666455  0.083545  1
  Ti  Ti14  1  0.000000  0.500000  0.000000  1
  Ti  Ti15  1  0.500000  0.000000  0.000000  1
  Ti  Ti16  1  0.000000  0.000000  0.500000  1
  Ti  Ti17  1  0.000000  0.000000  0.000000  1
  Lu  Lu18  1  0.500000  0.000000  0.500000  1
  Lu  Lu19  1  0.000000  0.500000  0.500000  1
  Lu  Lu20  1  0.500000  0.500000  0.000000  1
  Lu  Lu21  1  0.500000  0.500000  0.500000  1
