# generated using pymatgen
data_Lu4V4O13
_symmetry_space_group_name_H-M   'P 1'
_cell_length_a   7.08196688
_cell_length_b   7.10234768
_cell_length_c   7.01971393
_cell_angle_alpha   59.69074574
_cell_angle_beta   59.61466029
_cell_angle_gamma   60.00843400
_symmetry_Int_Tables_number   1
_chemical_formula_structural   Lu4V4O13
_chemical_formula_sum   'Lu4 V4 O13'
_cell_volume   248.36328309
_cell_formula_units_Z   1
loop_
 _symmetry_equiv_pos_site_id
 _symmetry_equiv_pos_as_xyz
  1  'x, y, z'
loop_
 _atom_site_type_symbol
 _atom_site_label
 _atom_site_symmetry_multiplicity
 _atom_site_fract_x
 _atom_site_fract_y
 _atom_site_fract_z
 _atom_site_occupancy
  Lu  Lu0  1  0.998715  0.997559  0.998126  1
  Lu  Lu1  1  0.505386  0.998059  0.998001  1
  Lu  Lu2  1  0.998317  0.998739  0.504332  1
  Lu  Lu3  1  0.998348  0.505742  0.998227  1
  V  V4  1  0.499225  0.003441  0.498191  1
  V  V5  1  0.500311  0.499554  0.000104  1
  V  V6  1  0.499214  0.499020  0.498298  1
  V  V7  1  0.003569  0.499023  0.498292  1
  O  O8  1  0.156805  0.589637  0.164725  1
  O  O9  1  0.163840  0.166065  0.581865  1
  O  O10  1  0.588891  0.154035  0.167208  1
  O  O11  1  0.164608  0.587594  0.582196  1
  O  O12  1  0.588305  0.590245  0.165835  1
  O  O13  1  0.589153  0.165436  0.581153  1
  O  O14  1  0.403811  0.840707  0.413683  1
  O  O15  1  0.404571  0.403060  0.841562  1
  O  O16  1  0.841516  0.405667  0.412207  1
  O  O17  1  0.403634  0.852839  0.840609  1
  O  O18  1  0.842227  0.840148  0.412751  1
  O  O19  1  0.849239  0.403822  0.842455  1
  O  O20  1  0.875314  0.874607  0.875179  1
