# generated using pymatgen
data_Lu2V2O7
_symmetry_space_group_name_H-M   'P 1'
_cell_length_a   7.06391240
_cell_length_b   7.06391241
_cell_length_c   7.06391241
_cell_angle_alpha   60.00000002
_cell_angle_beta   60.00000001
_cell_angle_gamma   60.00000005
_symmetry_Int_Tables_number   1
_chemical_formula_structural   Lu2V2O7
_chemical_formula_sum   'Lu4 V4 O14'
_cell_volume   249.24182244
_cell_formula_units_Z   2
loop_
 _symmetry_equiv_pos_site_id
 _symmetry_equiv_pos_as_xyz
  1  'x, y, z'
loop_
 _atom_site_type_symbol
 _atom_site_label
 _atom_site_symmetry_multiplicity
 _atom_site_fract_x
 _atom_site_fract_y
 _atom_site_fract_z
 _atom_site_occupancy
  O  O0  1  0.875000  0.875000  0.875000  1
  O  O1  1  0.125000  0.125000  0.125000  1
  O  O2  1  0.834679  0.834679  0.415321  1
  O  O3  1  0.584679  0.584679  0.165321  1
  O  O4  1  0.415321  0.834679  0.834679  1
  O  O5  1  0.834679  0.415321  0.834679  1
  O  O6  1  0.415321  0.834679  0.415321  1
  O  O7  1  0.834679  0.415321  0.415321  1
  O  O8  1  0.415321  0.415321  0.834679  1
  O  O9  1  0.584679  0.165321  0.165321  1
  O  O10  1  0.165321  0.584679  0.584679  1
  O  O11  1  0.584679  0.165321  0.584679  1
  O  O12  1  0.165321  0.584679  0.165321  1
  O  O13  1  0.165321  0.165321  0.584679  1
  V  V14  1  0.500000  0.000000  0.500000  1
  V  V15  1  0.000000  0.500000  0.500000  1
  V  V16  1  0.500000  0.500000  0.000000  1
  V  V17  1  0.500000  0.500000  0.500000  1
  Lu  Lu18  1  0.000000  0.500000  0.000000  1
  Lu  Lu19  1  0.500000  0.000000  0.000000  1
  Lu  Lu20  1  0.000000  0.000000  0.500000  1
  Lu  Lu21  1  0.000000  0.000000  0.000000  1
