# generated using pymatgen
data_Lu2V2O7
_symmetry_space_group_name_H-M   'P 1'
_cell_length_a   7.08756138
_cell_length_b   7.08756152
_cell_length_c   7.08756201
_cell_angle_alpha   59.99999774
_cell_angle_beta   59.99999712
_cell_angle_gamma   59.99999867
_symmetry_Int_Tables_number   1
_chemical_formula_structural   Lu2V2O7
_chemical_formula_sum   'Lu4 V4 O14'
_cell_volume   251.75350581
_cell_formula_units_Z   2
loop_
 _symmetry_equiv_pos_site_id
 _symmetry_equiv_pos_as_xyz
  1  'x, y, z'
loop_
 _atom_site_type_symbol
 _atom_site_label
 _atom_site_symmetry_multiplicity
 _atom_site_fract_x
 _atom_site_fract_y
 _atom_site_fract_z
 _atom_site_occupancy
  Lu  Lu0  1  0.500000  0.000000  0.000000  1
  Lu  Lu1  1  0.000000  0.000000  0.000000  1
  Lu  Lu2  1  0.000000  0.000000  0.500000  1
  Lu  Lu3  1  0.000000  0.500000  0.000000  1
  V  V4  1  0.000000  0.500000  0.500000  1
  V  V5  1  0.500000  0.500000  0.000000  1
  V  V6  1  0.500000  0.000000  0.500000  1
  V  V7  1  0.500000  0.500000  0.500000  1
  O  O8  1  0.127827  0.622173  0.622173  1
  O  O9  1  0.872173  0.377827  0.377827  1
  O  O10  1  0.127827  0.127827  0.622173  1
  O  O11  1  0.872173  0.872173  0.377827  1
  O  O12  1  0.622173  0.127827  0.127827  1
  O  O13  1  0.622173  0.622173  0.127827  1
  O  O14  1  0.377827  0.872173  0.377827  1
  O  O15  1  0.625000  0.625000  0.625000  1
  O  O16  1  0.127827  0.622173  0.127827  1
  O  O17  1  0.872173  0.377827  0.872173  1
  O  O18  1  0.377827  0.377827  0.872173  1
  O  O19  1  0.375000  0.375000  0.375000  1
  O  O20  1  0.622173  0.127827  0.622173  1
  O  O21  1  0.377827  0.872173  0.872173  1
