# generated using pymatgen
data_Lu2(WO4)3
_symmetry_space_group_name_H-M   'P 1'
_cell_length_a   6.84509889
_cell_length_b   6.84509889
_cell_length_c   11.30470096
_cell_angle_alpha   78.96062376
_cell_angle_beta   101.03937624
_cell_angle_gamma   67.84662252
_symmetry_Int_Tables_number   1
_chemical_formula_structural   Lu2(WO4)3
_chemical_formula_sum   'Lu4 W6 O24'
_cell_volume   460.80273379
_cell_formula_units_Z   2
loop_
 _symmetry_equiv_pos_site_id
 _symmetry_equiv_pos_as_xyz
  1  'x, y, z'
loop_
 _atom_site_type_symbol
 _atom_site_label
 _atom_site_symmetry_multiplicity
 _atom_site_fract_x
 _atom_site_fract_y
 _atom_site_fract_z
 _atom_site_occupancy
  Lu  Lu0  1  0.304960  0.950837  0.592122  1
  Lu  Lu1  1  0.049163  0.695040  0.092122  1
  Lu  Lu2  1  0.950837  0.304960  0.907878  1
  Lu  Lu3  1  0.695040  0.049163  0.407878  1
  W  W4  1  0.489253  0.794668  0.949676  1
  W  W5  1  0.205332  0.510747  0.449676  1
  W  W6  1  0.881814  0.881814  0.750000  1
  W  W7  1  0.118186  0.118186  0.250000  1
  W  W8  1  0.794668  0.489253  0.550324  1
  W  W9  1  0.510747  0.205332  0.050324  1
  O  O10  1  0.343308  0.798098  0.794925  1
  O  O11  1  0.587221  0.990822  0.719283  1
  O  O12  1  0.973626  0.946309  0.896345  1
  O  O13  1  0.331036  0.610147  0.562549  1
  O  O14  1  0.783955  0.616722  0.961736  1
  O  O15  1  0.105132  0.317569  0.576045  1
  O  O16  1  0.201902  0.656692  0.294925  1
  O  O17  1  0.317569  0.105132  0.923955  1
  O  O18  1  0.616722  0.783955  0.538264  1
  O  O19  1  0.610147  0.331036  0.937451  1
  O  O20  1  0.946309  0.973626  0.603655  1
  O  O21  1  0.009178  0.412779  0.219283  1
  O  O22  1  0.990822  0.587221  0.780717  1
  O  O23  1  0.053691  0.026374  0.396345  1
  O  O24  1  0.389853  0.668964  0.062549  1
  O  O25  1  0.383278  0.216045  0.461736  1
  O  O26  1  0.682431  0.894868  0.076045  1
  O  O27  1  0.798098  0.343308  0.705075  1
  O  O28  1  0.894868  0.682431  0.423955  1
  O  O29  1  0.216045  0.383278  0.038264  1
  O  O30  1  0.668964  0.389853  0.437451  1
  O  O31  1  0.026374  0.053691  0.103655  1
  O  O32  1  0.412779  0.009178  0.280717  1
  O  O33  1  0.656692  0.201902  0.205075  1
