# generated using pymatgen
data_Lu(BRh)4
_symmetry_space_group_name_H-M   'P 1'
_cell_length_a   7.50733722
_cell_length_b   7.51270966
_cell_length_c   11.80546724
_cell_angle_alpha   90.00000000
_cell_angle_beta   108.53961062
_cell_angle_gamma   90.00000000
_symmetry_Int_Tables_number   1
_chemical_formula_structural   Lu(BRh)4
_chemical_formula_sum   'Lu6 B24 Rh24'
_cell_volume   631.27954646
_cell_formula_units_Z   6
loop_
 _symmetry_equiv_pos_site_id
 _symmetry_equiv_pos_as_xyz
  1  'x, y, z'
loop_
 _atom_site_type_symbol
 _atom_site_label
 _atom_site_symmetry_multiplicity
 _atom_site_fract_x
 _atom_site_fract_y
 _atom_site_fract_z
 _atom_site_occupancy
  B  B0  1  0.658978  0.584258  0.606894  1
  B  B1  1  0.552084  0.915742  0.393106  1
  B  B2  1  0.841022  0.584258  0.393106  1
  B  B3  1  0.947916  0.915742  0.606894  1
  B  B4  1  0.341022  0.415742  0.393106  1
  B  B5  1  0.447916  0.084258  0.606894  1
  B  B6  1  0.197933  0.886329  0.056884  1
  B  B7  1  0.641048  0.613671  0.943116  1
  B  B8  1  0.302067  0.886329  0.943116  1
  B  B9  1  0.858952  0.613671  0.056884  1
  B  B10  1  0.802067  0.113671  0.943116  1
  B  B11  1  0.358952  0.386329  0.056884  1
  B  B12  1  0.697933  0.113671  0.056884  1
  B  B13  1  0.141048  0.386329  0.943116  1
  B  B14  1  0.276567  0.578028  0.279166  1
  B  B15  1  0.497401  0.921972  0.720834  1
  B  B16  1  0.223433  0.578028  0.720834  1
  B  B17  1  0.002599  0.921972  0.279166  1
  B  B18  1  0.723433  0.421972  0.720834  1
  B  B19  1  0.502599  0.078028  0.279166  1
  B  B20  1  0.776567  0.421972  0.279166  1
  B  B21  1  0.997401  0.078028  0.720834  1
  B  B22  1  0.158978  0.415742  0.606894  1
  B  B23  1  0.052084  0.084258  0.393106  1
  Rh  Rh24  1  0.356434  0.125989  0.414176  1
  Rh  Rh25  1  0.442258  0.374011  0.585824  1
  Rh  Rh26  1  0.856434  0.874011  0.414176  1
  Rh  Rh27  1  0.942258  0.625989  0.585824  1
  Rh  Rh28  1  0.643566  0.874011  0.585824  1
  Rh  Rh29  1  0.557742  0.625989  0.414176  1
  Rh  Rh30  1  0.278565  0.864352  0.248932  1
  Rh  Rh31  1  0.529633  0.635648  0.751068  1
  Rh  Rh32  1  0.221435  0.864352  0.751068  1
  Rh  Rh33  1  0.970367  0.635648  0.248932  1
  Rh  Rh34  1  0.721435  0.135648  0.751068  1
  Rh  Rh35  1  0.470367  0.364352  0.248932  1
  Rh  Rh36  1  0.778565  0.135648  0.248932  1
  Rh  Rh37  1  0.029633  0.364352  0.751068  1
  Rh  Rh38  1  0.157511  0.594051  0.082594  1
  Rh  Rh39  1  0.574916  0.905949  0.917406  1
  Rh  Rh40  1  0.342489  0.594051  0.917406  1
  Rh  Rh41  1  0.925084  0.905949  0.082594  1
  Rh  Rh42  1  0.842489  0.405949  0.917406  1
  Rh  Rh43  1  0.425084  0.094051  0.082594  1
  Rh  Rh44  1  0.657511  0.405949  0.082594  1
  Rh  Rh45  1  0.074916  0.094051  0.917406  1
  Rh  Rh46  1  0.057742  0.374011  0.414176  1
  Rh  Rh47  1  0.143566  0.125989  0.585824  1
  Lu  Lu48  1  0.250000  0.750000  0.500000  1
  Lu  Lu49  1  0.750000  0.250000  0.500000  1
  Lu  Lu50  1  0.916832  0.750000  0.833665  1
  Lu  Lu51  1  0.583168  0.750000  0.166335  1
  Lu  Lu52  1  0.083168  0.250000  0.166335  1
  Lu  Lu53  1  0.416832  0.250000  0.833665  1
