# generated using pymatgen
data_CeCo3
_symmetry_space_group_name_H-M   'P 1'
_cell_length_a   8.79893468
_cell_length_b   8.79893464
_cell_length_c   8.79893437
_cell_angle_alpha   32.29425542
_cell_angle_beta   32.29425584
_cell_angle_gamma   32.29425721
_symmetry_Int_Tables_number   1
_chemical_formula_structural   CeCo3
_chemical_formula_sum   'Ce3 Co9'
_cell_volume   172.84801810
_cell_formula_units_Z   3
loop_
 _symmetry_equiv_pos_site_id
 _symmetry_equiv_pos_as_xyz
  1  'x, y, z'
loop_
 _atom_site_type_symbol
 _atom_site_label
 _atom_site_symmetry_multiplicity
 _atom_site_fract_x
 _atom_site_fract_y
 _atom_site_fract_z
 _atom_site_occupancy
  Ce  Ce0  1  0.861083  0.861083  0.861083  1
  Ce  Ce1  1  0.138917  0.138917  0.138917  1
  Ce  Ce2  1  0.000000  0.000000  0.000000  1
  Co  Co3  1  0.331896  0.331896  0.331896  1
  Co  Co4  1  0.420662  0.420662  0.916942  1
  Co  Co5  1  0.579338  0.579338  0.083058  1
  Co  Co6  1  0.668104  0.668104  0.668104  1
  Co  Co7  1  0.579338  0.083058  0.579338  1
  Co  Co8  1  0.916942  0.420662  0.420662  1
  Co  Co9  1  0.420662  0.916942  0.420662  1
  Co  Co10  1  0.500000  0.500000  0.500000  1
  Co  Co11  1  0.083058  0.579338  0.579338  1
