# generated using pymatgen
data_LuScO3
_symmetry_space_group_name_H-M   'P 1'
_cell_length_a   6.10898700
_cell_length_b   6.10904338
_cell_length_c   12.11425500
_cell_angle_alpha   89.99994117
_cell_angle_beta   89.99988224
_cell_angle_gamma   120.00034247
_symmetry_Int_Tables_number   1
_chemical_formula_structural   LuScO3
_chemical_formula_sum   'Lu6 Sc6 O18'
_cell_volume   391.53289348
_cell_formula_units_Z   6
loop_
 _symmetry_equiv_pos_site_id
 _symmetry_equiv_pos_as_xyz
  1  'x, y, z'
loop_
 _atom_site_type_symbol
 _atom_site_label
 _atom_site_symmetry_multiplicity
 _atom_site_fract_x
 _atom_site_fract_y
 _atom_site_fract_z
 _atom_site_occupancy
  Lu  Lu0  1  0.333326  0.666662  0.232654  1
  Lu  Lu1  1  0.999993  0.999991  0.270838  1
  Lu  Lu2  1  0.999996  0.000007  0.770838  1
  Lu  Lu3  1  0.333335  0.666670  0.732652  1
  Lu  Lu4  1  0.666664  0.333329  0.732652  1
  Lu  Lu5  1  0.666661  0.333338  0.232651  1
  Sc  Sc6  1  0.999998  0.666556  0.498716  1
  Sc  Sc7  1  0.999999  0.333449  0.998715  1
  Sc  Sc8  1  0.333445  0.333443  0.498715  1
  Sc  Sc9  1  0.666557  0.666562  0.998712  1
  Sc  Sc10  1  0.333444  0.000002  0.998714  1
  Sc  Sc11  1  0.666557  0.000000  0.498715  1
  O  O12  1  0.000004  0.693729  0.669040  1
  O  O13  1  0.000005  0.638702  0.330123  1
  O  O14  1  0.000005  0.361301  0.830126  1
  O  O15  1  0.999996  0.306285  0.169040  1
  O  O16  1  0.333334  0.666671  0.021785  1
  O  O17  1  0.999996  0.999995  0.469920  1
  O  O18  1  0.000001  0.000006  0.969913  1
  O  O19  1  0.333334  0.666663  0.521788  1
  O  O20  1  0.306281  0.306272  0.669041  1
  O  O21  1  0.361299  0.361298  0.330120  1
  O  O22  1  0.306298  0.000003  0.169038  1
  O  O23  1  0.638698  0.638696  0.830122  1
  O  O24  1  0.693715  0.693715  0.169039  1
  O  O25  1  0.361291  0.999993  0.830121  1
  O  O26  1  0.666667  0.333333  0.521789  1
  O  O27  1  0.666666  0.333335  0.021786  1
  O  O28  1  0.638697  0.999992  0.330123  1
  O  O29  1  0.693718  0.000001  0.669042  1
