# generated using pymatgen
data_Lu4CoB13
_symmetry_space_group_name_H-M   'P 1'
_cell_length_a   7.20317663
_cell_length_b   7.20317663
_cell_length_c   6.74949493
_cell_angle_alpha   90.00000000
_cell_angle_beta   90.00000000
_cell_angle_gamma   90.00000000
_symmetry_Int_Tables_number   1
_chemical_formula_structural   Lu4CoB13
_chemical_formula_sum   'Lu8 Co2 B26'
_cell_volume   350.20263061
_cell_formula_units_Z   2
loop_
 _symmetry_equiv_pos_site_id
 _symmetry_equiv_pos_as_xyz
  1  'x, y, z'
loop_
 _atom_site_type_symbol
 _atom_site_label
 _atom_site_symmetry_multiplicity
 _atom_site_fract_x
 _atom_site_fract_y
 _atom_site_fract_z
 _atom_site_occupancy
  Lu  Lu0  1  0.318384  0.185127  0.000000  1
  Lu  Lu1  1  0.818384  0.314873  0.500000  1
  Lu  Lu2  1  0.181616  0.685127  0.500000  1
  Lu  Lu3  1  0.681616  0.814873  0.000000  1
  Lu  Lu4  1  0.814873  0.318384  0.000000  1
  Lu  Lu5  1  0.185127  0.681616  0.000000  1
  Lu  Lu6  1  0.314873  0.181616  0.500000  1
  Lu  Lu7  1  0.685127  0.818384  0.500000  1
  Co  Co8  1  -0.000000  0.000000  0.000000  1
  Co  Co9  1  0.500000  0.500000  0.500000  1
  B  B10  1  0.461052  0.671207  0.245530  1
  B  B11  1  0.089953  0.410047  0.250000  1
  B  B12  1  0.961052  0.828793  0.745530  1
  B  B13  1  0.328793  0.461052  0.754470  1
  B  B14  1  0.671207  0.538948  0.245530  1
  B  B15  1  0.410047  0.910047  0.750000  1
  B  B16  1  0.961052  0.828793  0.254470  1
  B  B17  1  0.171207  0.961052  0.254470  1
  B  B18  1  0.910047  0.589953  0.250000  1
  B  B19  1  0.828793  0.038948  0.254470  1
  B  B20  1  0.828793  0.038948  0.745530  1
  B  B21  1  0.538948  0.328793  0.245530  1
  B  B22  1  0.589953  0.089953  0.750000  1
  B  B23  1  0.171207  0.961052  0.745530  1
  B  B24  1  0.589953  0.089953  0.250000  1
  B  B25  1  0.500000  0.500000  0.000000  1
  B  B26  1  0.089953  0.410047  0.750000  1
  B  B27  1  0.910047  0.589953  0.750000  1
  B  B28  1  0.410047  0.910047  0.250000  1
  B  B29  1  0.538948  0.328793  0.754470  1
  B  B30  1  0.461052  0.671207  0.754470  1
  B  B31  1  0.328793  0.461052  0.245530  1
  B  B32  1  0.038948  0.171207  0.254470  1
  B  B33  1  0.038948  0.171207  0.745530  1
  B  B34  1  0.671207  0.538948  0.754470  1
  B  B35  1  -0.000000  0.000000  0.500000  1
