# generated using pymatgen
data_Lu2Cu2O5
_symmetry_space_group_name_H-M   'P 1'
_cell_length_a   3.41841155
_cell_length_b   10.76567924
_cell_length_c   12.36820321
_cell_angle_alpha   90.00000000
_cell_angle_beta   90.00000000
_cell_angle_gamma   90.00000000
_symmetry_Int_Tables_number   1
_chemical_formula_structural   Lu2Cu2O5
_chemical_formula_sum   'Lu8 Cu8 O20'
_cell_volume   455.16870572
_cell_formula_units_Z   4
loop_
 _symmetry_equiv_pos_site_id
 _symmetry_equiv_pos_as_xyz
  1  'x, y, z'
loop_
 _atom_site_type_symbol
 _atom_site_label
 _atom_site_symmetry_multiplicity
 _atom_site_fract_x
 _atom_site_fract_y
 _atom_site_fract_z
 _atom_site_occupancy
  O  O0  1  0.271461  0.921584  0.028414  1
  O  O1  1  0.728539  0.078416  0.528414  1
  O  O2  1  0.228539  0.421584  0.028414  1
  O  O3  1  0.771461  0.578416  0.528414  1
  O  O4  1  0.723716  0.930139  0.234705  1
  O  O5  1  0.276284  0.069861  0.734705  1
  O  O6  1  0.776284  0.430139  0.234705  1
  O  O7  1  0.223716  0.569861  0.734705  1
  O  O8  1  0.174250  0.624820  0.333618  1
  O  O9  1  0.825750  0.375180  0.833618  1
  O  O10  1  0.325750  0.124820  0.333618  1
  O  O11  1  0.674250  0.875180  0.833618  1
  O  O12  1  0.780897  0.820518  0.433206  1
  O  O13  1  0.219103  0.179482  0.933206  1
  O  O14  1  0.719103  0.320518  0.433206  1
  O  O15  1  0.280897  0.679482  0.933206  1
  O  O16  1  0.276500  0.828105  0.639201  1
  O  O17  1  0.723500  0.171895  0.139201  1
  O  O18  1  0.223500  0.328105  0.639201  1
  O  O19  1  0.776500  0.671895  0.139201  1
  Cu  Cu20  1  0.845655  0.761605  0.279842  1
  Cu  Cu21  1  0.154345  0.238395  0.779842  1
  Cu  Cu22  1  0.654345  0.261605  0.279842  1
  Cu  Cu23  1  0.345655  0.738395  0.779842  1
  Cu  Cu24  1  0.840699  0.489049  0.387659  1
  Cu  Cu25  1  0.159301  0.510951  0.887659  1
  Cu  Cu26  1  0.659301  0.989049  0.387659  1
  Cu  Cu27  1  0.340699  0.010951  0.887659  1
  Lu  Lu28  1  0.276265  0.542224  0.169529  1
  Lu  Lu29  1  0.723735  0.457776  0.669529  1
  Lu  Lu30  1  0.223735  0.042224  0.169529  1
  Lu  Lu31  1  0.776265  0.957776  0.669529  1
  Lu  Lu32  1  0.276797  0.708022  0.497527  1
  Lu  Lu33  1  0.723203  0.291978  0.997527  1
  Lu  Lu34  1  0.223203  0.208022  0.497527  1
  Lu  Lu35  1  0.776797  0.791978  0.997527  1
