# generated using pymatgen
data_Lu4Hf3O12
_symmetry_space_group_name_H-M   'P 1'
_cell_length_a   6.32518456
_cell_length_b   6.31232200
_cell_length_c   12.62056555
_cell_angle_alpha   99.39850109
_cell_angle_beta   99.05780671
_cell_angle_gamma   99.46333551
_symmetry_Int_Tables_number   1
_chemical_formula_structural   Lu4Hf3O12
_chemical_formula_sum   'Lu8 Hf6 O24'
_cell_volume   481.49446925
_cell_formula_units_Z   2
loop_
 _symmetry_equiv_pos_site_id
 _symmetry_equiv_pos_as_xyz
  1  'x, y, z'
loop_
 _atom_site_type_symbol
 _atom_site_label
 _atom_site_symmetry_multiplicity
 _atom_site_fract_x
 _atom_site_fract_y
 _atom_site_fract_z
 _atom_site_occupancy
  Lu  Lu0  1  0.389763  0.696814  0.930305  1
  Lu  Lu1  1  0.137461  0.610285  0.153852  1
  Lu  Lu2  1  0.312051  0.141396  0.804412  1
  Lu  Lu3  1  0.390176  0.684714  0.430374  1
  Lu  Lu4  1  0.687949  0.858604  0.695588  1
  Lu  Lu5  1  0.610237  0.303186  0.569695  1
  Lu  Lu6  1  0.609824  0.315286  0.069626  1
  Lu  Lu7  1  0.862539  0.389715  0.346148  1
  Hf  Hf8  1  0.994614  0.994810  0.498614  1
  Hf  Hf9  1  0.140473  0.611334  0.655131  1
  Hf  Hf10  1  0.005386  0.005190  0.001386  1
  Hf  Hf11  1  0.316946  0.140750  0.305146  1
  Hf  Hf12  1  0.683054  0.859250  0.194854  1
  Hf  Hf13  1  0.859527  0.388666  0.844869  1
  O  O14  1  0.041469  0.681927  0.953171  1
  O  O15  1  0.083645  0.932158  0.656626  1
  O  O16  1  0.055045  0.678418  0.464340  1
  O  O17  1  0.092960  0.958009  0.161777  1
  O  O18  1  0.168907  0.427089  0.786924  1
  O  O19  1  0.180612  0.411454  0.286389  1
  O  O20  1  0.405123  0.814363  0.780816  1
  O  O21  1  0.319565  0.080217  0.973196  1
  O  O22  1  0.416336  0.573323  0.591187  1
  O  O23  1  0.425330  0.828728  0.285767  1
  O  O24  1  0.309351  0.079710  0.462756  1
  O  O25  1  0.583664  0.426677  0.908813  1
  O  O26  1  0.434597  0.595144  0.092433  1
  O  O27  1  0.680435  0.919783  0.526804  1
  O  O28  1  0.594877  0.185637  0.719184  1
  O  O29  1  0.565403  0.404856  0.407567  1
  O  O30  1  0.690649  0.920290  0.037244  1
  O  O31  1  0.574670  0.171272  0.214233  1
  O  O32  1  0.831093  0.572911  0.713076  1
  O  O33  1  0.819388  0.588546  0.213611  1
  O  O34  1  0.916355  0.067842  0.843374  1
  O  O35  1  0.958531  0.318073  0.546829  1
  O  O36  1  0.907040  0.041991  0.338223  1
  O  O37  1  0.944955  0.321582  0.035660  1
