# generated using pymatgen
data_Lu2PdO4
_symmetry_space_group_name_H-M   'P 1'
_cell_length_a   5.53462227
_cell_length_b   5.53087102
_cell_length_c   11.65331941
_cell_angle_alpha   90.00000000
_cell_angle_beta   90.00000000
_cell_angle_gamma   90.00000000
_symmetry_Int_Tables_number   1
_chemical_formula_structural   Lu2PdO4
_chemical_formula_sum   'Lu8 Pd4 O16'
_cell_volume   356.72304576
_cell_formula_units_Z   4
loop_
 _symmetry_equiv_pos_site_id
 _symmetry_equiv_pos_as_xyz
  1  'x, y, z'
loop_
 _atom_site_type_symbol
 _atom_site_label
 _atom_site_symmetry_multiplicity
 _atom_site_fract_x
 _atom_site_fract_y
 _atom_site_fract_z
 _atom_site_occupancy
  O  O0  1  0.759390  0.252375  0.249682  1
  O  O1  1  0.259390  0.247625  0.750318  1
  O  O2  1  0.240610  0.752375  0.250318  1
  O  O3  1  0.740610  0.747625  0.749682  1
  O  O4  1  0.240610  0.747625  0.750318  1
  O  O5  1  0.740610  0.752375  0.249682  1
  O  O6  1  0.759390  0.247625  0.749682  1
  O  O7  1  0.259390  0.252375  0.250318  1
  O  O8  1  0.668443  0.331543  0.499480  1
  O  O9  1  0.168443  0.168457  0.500520  1
  O  O10  1  0.331557  0.831543  0.000520  1
  O  O11  1  0.831557  0.668457  0.999480  1
  O  O12  1  0.168443  0.331543  0.000520  1
  O  O13  1  0.668443  0.168457  0.999480  1
  O  O14  1  0.831557  0.831543  0.499480  1
  O  O15  1  0.331557  0.668457  0.500520  1
  Pd  Pd16  1  0.500000  0.000000  0.500000  1
  Pd  Pd17  1  0.000000  0.500000  0.500000  1
  Pd  Pd18  1  0.500000  0.500000  0.000000  1
  Pd  Pd19  1  0.000000  0.000000  0.000000  1
  Lu  Lu20  1  0.499580  0.002261  0.161567  1
  Lu  Lu21  1  0.999580  0.497739  0.838433  1
  Lu  Lu22  1  0.500420  0.502261  0.338433  1
  Lu  Lu23  1  0.000420  0.997739  0.661567  1
  Lu  Lu24  1  0.500420  0.997739  0.838433  1
  Lu  Lu25  1  0.000420  0.502261  0.161567  1
  Lu  Lu26  1  0.499580  0.497739  0.661567  1
  Lu  Lu27  1  0.999580  0.002261  0.338433  1
