# generated using pymatgen
data_Lu4V4O13
_symmetry_space_group_name_H-M   'P 1'
_cell_length_a   7.04527477
_cell_length_b   7.04527450
_cell_length_c   13.96786071
_cell_angle_alpha   61.73346265
_cell_angle_beta   61.73346392
_cell_angle_gamma   61.28820387
_symmetry_Int_Tables_number   1
_chemical_formula_structural   Lu4V4O13
_chemical_formula_sum   'Lu8 V8 O26'
_cell_volume   507.65530181
_cell_formula_units_Z   2
loop_
 _symmetry_equiv_pos_site_id
 _symmetry_equiv_pos_as_xyz
  1  'x, y, z'
loop_
 _atom_site_type_symbol
 _atom_site_label
 _atom_site_symmetry_multiplicity
 _atom_site_fract_x
 _atom_site_fract_y
 _atom_site_fract_z
 _atom_site_occupancy
  Lu  Lu0  1  0.990513  0.990513  0.005744  1
  Lu  Lu1  1  0.003953  0.522038  0.979490  1
  Lu  Lu2  1  0.522038  0.003953  0.979490  1
  Lu  Lu3  1  0.009487  0.009487  0.494256  1
  Lu  Lu4  1  0.477962  0.996047  0.520510  1
  Lu  Lu5  1  0.500000  0.500000  0.250000  1
  Lu  Lu6  1  0.996047  0.477962  0.520510  1
  Lu  Lu7  1  0.000000  0.000000  0.250000  1
  V  V8  1  0.497112  0.497112  0.495909  1
  V  V9  1  0.500000  0.000000  0.250000  1
  V  V10  1  0.000000  0.000000  0.750000  1
  V  V11  1  0.000000  0.500000  0.250000  1
  V  V12  1  0.500000  0.500000  0.750000  1
  V  V13  1  0.502888  0.502888  0.004091  1
  V  V14  1  0.500000  0.000000  0.750000  1
  V  V15  1  0.000000  0.500000  0.750000  1
  O  O16  1  0.202755  0.593731  0.092455  1
  O  O17  1  0.160991  0.160991  0.308397  1
  O  O18  1  0.593731  0.202755  0.092455  1
  O  O19  1  0.102871  0.624927  0.328006  1
  O  O20  1  0.111772  0.111772  0.572201  1
  O  O21  1  0.618508  0.618508  0.053800  1
  O  O22  1  0.624927  0.102871  0.328006  1
  O  O23  1  0.109995  0.635393  0.578113  1
  O  O24  1  0.381492  0.381492  0.446200  1
  O  O25  1  0.375073  0.897129  0.171994  1
  O  O26  1  0.190837  0.190837  0.755257  1
  O  O27  1  0.897129  0.375073  0.171994  1
  O  O28  1  0.635393  0.109995  0.578113  1
  O  O29  1  0.406269  0.797245  0.407545  1
  O  O30  1  0.163531  0.601772  0.785530  1
  O  O31  1  0.600544  0.600544  0.570718  1
  O  O32  1  0.839009  0.839009  0.191603  1
  O  O33  1  0.797245  0.406269  0.407545  1
  O  O34  1  0.601772  0.163531  0.785530  1
  O  O35  1  0.398228  0.836469  0.714470  1
  O  O36  1  0.399456  0.399456  0.929282  1
  O  O37  1  0.836469  0.398228  0.714470  1
  O  O38  1  0.364607  0.890005  0.921887  1
  O  O39  1  0.809163  0.809163  0.744743  1
  O  O40  1  0.890005  0.364607  0.921887  1
  O  O41  1  0.888228  0.888228  0.927799  1
