# generated using pymatgen
data_Lu2(WO4)3
_symmetry_space_group_name_H-M   'P 1'
_cell_length_a   10.08906767
_cell_length_b   13.80250557
_cell_length_c   9.96935307
_cell_angle_alpha   90.00000000
_cell_angle_beta   90.00000000
_cell_angle_gamma   90.00000000
_symmetry_Int_Tables_number   1
_chemical_formula_structural   Lu2(WO4)3
_chemical_formula_sum   'Lu8 W12 O48'
_cell_volume   1388.27640687
_cell_formula_units_Z   4
loop_
 _symmetry_equiv_pos_site_id
 _symmetry_equiv_pos_as_xyz
  1  'x, y, z'
loop_
 _atom_site_type_symbol
 _atom_site_label
 _atom_site_symmetry_multiplicity
 _atom_site_fract_x
 _atom_site_fract_y
 _atom_site_fract_z
 _atom_site_occupancy
  Lu  Lu0  1  0.039090  0.621687  0.248804  1
  Lu  Lu1  1  0.039090  0.878313  0.748804  1
  Lu  Lu2  1  0.460910  0.121687  0.748804  1
  Lu  Lu3  1  0.460910  0.378313  0.248804  1
  Lu  Lu4  1  0.539090  0.878313  0.251196  1
  Lu  Lu5  1  0.539090  0.621687  0.751196  1
  Lu  Lu6  1  0.960910  0.121687  0.251196  1
  Lu  Lu7  1  0.960910  0.378313  0.751196  1
  W  W8  1  0.113651  0.355603  0.398231  1
  W  W9  1  0.113651  0.144397  0.898231  1
  W  W10  1  0.250000  0.000000  0.466601  1
  W  W11  1  0.250000  0.500000  0.966601  1
  W  W12  1  0.386349  0.644397  0.398231  1
  W  W13  1  0.386349  0.855603  0.898231  1
  W  W14  1  0.613651  0.144397  0.101769  1
  W  W15  1  0.613651  0.355603  0.601769  1
  W  W16  1  0.750000  0.000000  0.533399  1
  W  W17  1  0.750000  0.500000  0.033399  1
  W  W18  1  0.886349  0.855603  0.101769  1
  W  W19  1  0.886349  0.644397  0.601769  1
  O  O20  1  0.997556  0.767193  0.174600  1
  O  O21  1  0.997556  0.732807  0.674600  1
  O  O22  1  0.075488  0.025394  0.831929  1
  O  O23  1  0.075488  0.474606  0.331929  1
  O  O24  1  0.093229  0.146472  0.078782  1
  O  O25  1  0.093229  0.353528  0.578782  1
  O  O26  1  0.130249  0.063146  0.363192  1
  O  O27  1  0.130249  0.436854  0.863192  1
  O  O28  1  0.165253  0.913879  0.573463  1
  O  O29  1  0.165253  0.586121  0.073463  1
  O  O30  1  0.216407  0.825850  0.856303  1
  O  O31  1  0.216407  0.674150  0.356303  1
  O  O32  1  0.283593  0.174150  0.856303  1
  O  O33  1  0.283593  0.325850  0.356303  1
  O  O34  1  0.334747  0.086121  0.573463  1
  O  O35  1  0.334747  0.413879  0.073463  1
  O  O36  1  0.369751  0.563146  0.863192  1
  O  O37  1  0.369751  0.936854  0.363192  1
  O  O38  1  0.406771  0.646472  0.578782  1
  O  O39  1  0.406771  0.853528  0.078782  1
  O  O40  1  0.424512  0.525394  0.331929  1
  O  O41  1  0.424512  0.974606  0.831929  1
  O  O42  1  0.502444  0.267193  0.674600  1
  O  O43  1  0.502444  0.232807  0.174600  1
  O  O44  1  0.497556  0.732807  0.325400  1
  O  O45  1  0.497556  0.767193  0.825400  1
  O  O46  1  0.575488  0.025394  0.168071  1
  O  O47  1  0.575488  0.474606  0.668071  1
  O  O48  1  0.593229  0.353528  0.421218  1
  O  O49  1  0.593229  0.146472  0.921218  1
  O  O50  1  0.630249  0.063146  0.636808  1
  O  O51  1  0.630249  0.436854  0.136808  1
  O  O52  1  0.665253  0.913879  0.426537  1
  O  O53  1  0.665253  0.586121  0.926537  1
  O  O54  1  0.716407  0.674150  0.643697  1
  O  O55  1  0.716407  0.825850  0.143697  1
  O  O56  1  0.783593  0.174150  0.143697  1
  O  O57  1  0.783593  0.325850  0.643697  1
  O  O58  1  0.834747  0.413879  0.926537  1
  O  O59  1  0.834747  0.086121  0.426537  1
  O  O60  1  0.869751  0.936854  0.636808  1
  O  O61  1  0.869751  0.563146  0.136808  1
  O  O62  1  0.906771  0.853528  0.921218  1
  O  O63  1  0.906771  0.646472  0.421218  1
  O  O64  1  0.924512  0.974606  0.168071  1
  O  O65  1  0.924512  0.525394  0.668071  1
  O  O66  1  0.002444  0.232807  0.825400  1
  O  O67  1  0.002444  0.267193  0.325400  1
