# generated using pymatgen
data_Lu2WO6
_symmetry_space_group_name_H-M   'P 1'
_cell_length_a   5.19281667
_cell_length_b   9.00335075
_cell_length_c   9.85550339
_cell_angle_alpha   90.00000000
_cell_angle_beta   90.00000000
_cell_angle_gamma   90.00000000
_symmetry_Int_Tables_number   1
_chemical_formula_structural   Lu2WO6
_chemical_formula_sum   'Lu8 W4 O24'
_cell_volume   460.77188474
_cell_formula_units_Z   4
loop_
 _symmetry_equiv_pos_site_id
 _symmetry_equiv_pos_as_xyz
  1  'x, y, z'
loop_
 _atom_site_type_symbol
 _atom_site_label
 _atom_site_symmetry_multiplicity
 _atom_site_fract_x
 _atom_site_fract_y
 _atom_site_fract_z
 _atom_site_occupancy
  Lu  Lu0  1  0.018898  0.397291  0.034520  1
  Lu  Lu1  1  0.038496  0.280504  0.627705  1
  Lu  Lu2  1  0.461504  0.719496  0.127705  1
  Lu  Lu3  1  0.481102  0.602709  0.534520  1
  Lu  Lu4  1  0.518898  0.102709  0.965480  1
  Lu  Lu5  1  0.538496  0.219496  0.372295  1
  Lu  Lu6  1  0.961504  0.780504  0.872295  1
  Lu  Lu7  1  0.981102  0.897291  0.465480  1
  W  W8  1  0.038821  0.005606  0.152745  1
  W  W9  1  0.461179  0.994394  0.652745  1
  W  W10  1  0.538821  0.494394  0.847255  1
  W  W11  1  0.961179  0.505606  0.347255  1
  O  O12  1  0.090258  0.659811  0.470420  1
  O  O13  1  0.179509  0.546987  0.198235  1
  O  O14  1  0.174990  0.859781  0.681372  1
  O  O15  1  0.195815  0.857297  0.266091  1
  O  O16  1  0.235891  0.384074  0.433302  1
  O  O17  1  0.249798  0.090388  0.503814  1
  O  O18  1  0.250202  0.909612  0.003814  1
  O  O19  1  0.264109  0.615926  0.933302  1
  O  O20  1  0.304185  0.142703  0.766091  1
  O  O21  1  0.325010  0.140219  0.181372  1
  O  O22  1  0.320491  0.453013  0.698235  1
  O  O23  1  0.409742  0.340189  0.970420  1
  O  O24  1  0.590258  0.840189  0.529580  1
  O  O25  1  0.679509  0.953013  0.801765  1
  O  O26  1  0.674990  0.640219  0.318628  1
  O  O27  1  0.695815  0.642703  0.733909  1
  O  O28  1  0.735891  0.115926  0.566698  1
  O  O29  1  0.749798  0.409612  0.496186  1
  O  O30  1  0.750202  0.590388  0.996186  1
  O  O31  1  0.764109  0.884074  0.066698  1
  O  O32  1  0.804185  0.357297  0.233909  1
  O  O33  1  0.825010  0.359781  0.818628  1
  O  O34  1  0.820491  0.046987  0.301765  1
  O  O35  1  0.909742  0.159811  0.029580  1
