# generated using pymatgen
data_Lu2WO6
_symmetry_space_group_name_H-M   'P 1'
_cell_length_a   5.30146880
_cell_length_b   9.72634702
_cell_length_c   9.72634702
_cell_angle_alpha   68.18519031
_cell_angle_beta   75.72127610
_cell_angle_gamma   75.72127610
_symmetry_Int_Tables_number   1
_chemical_formula_structural   Lu2WO6
_chemical_formula_sum   'Lu8 W4 O24'
_cell_volume   444.48463683
_cell_formula_units_Z   4
loop_
 _symmetry_equiv_pos_site_id
 _symmetry_equiv_pos_as_xyz
  1  'x, y, z'
loop_
 _atom_site_type_symbol
 _atom_site_label
 _atom_site_symmetry_multiplicity
 _atom_site_fract_x
 _atom_site_fract_y
 _atom_site_fract_z
 _atom_site_occupancy
  Lu  Lu0  1  0.618742  0.054901  0.282838  1
  Lu  Lu1  1  0.118742  0.282838  0.054901  1
  Lu  Lu2  1  0.750000  0.635431  0.364569  1
  Lu  Lu3  1  0.750000  0.103715  0.896285  1
  Lu  Lu4  1  0.250000  0.896285  0.103715  1
  Lu  Lu5  1  0.250000  0.364569  0.635431  1
  Lu  Lu6  1  0.881258  0.717162  0.945099  1
  Lu  Lu7  1  0.381258  0.945099  0.717162  1
  W  W8  1  0.932182  0.199121  0.493368  1
  W  W9  1  0.432182  0.493368  0.199121  1
  W  W10  1  0.567818  0.506632  0.800879  1
  W  W11  1  0.067818  0.800879  0.506632  1
  O  O12  1  0.921917  0.108116  0.073631  1
  O  O13  1  0.421917  0.073631  0.108116  1
  O  O14  1  0.743760  0.473866  0.058271  1
  O  O15  1  0.850112  0.215617  0.312307  1
  O  O16  1  0.243760  0.058271  0.473866  1
  O  O17  1  0.350112  0.312307  0.215617  1
  O  O18  1  0.608496  0.176565  0.621762  1
  O  O19  1  0.108496  0.621762  0.176565  1
  O  O20  1  0.981069  0.391231  0.455209  1
  O  O21  1  0.578646  0.691464  0.158301  1
  O  O22  1  0.481069  0.455209  0.391231  1
  O  O23  1  0.078646  0.158301  0.691464  1
  O  O24  1  0.921354  0.841699  0.308536  1
  O  O25  1  0.518931  0.544791  0.608769  1
  O  O26  1  0.421354  0.308536  0.841699  1
  O  O27  1  0.018931  0.608769  0.544791  1
  O  O28  1  0.891504  0.378238  0.823435  1
  O  O29  1  0.391504  0.823435  0.378238  1
  O  O30  1  0.649888  0.687693  0.784383  1
  O  O31  1  0.756240  0.941729  0.526134  1
  O  O32  1  0.149888  0.784383  0.687693  1
  O  O33  1  0.256240  0.526134  0.941729  1
  O  O34  1  0.578083  0.926369  0.891884  1
  O  O35  1  0.078083  0.891884  0.926369  1
