# generated using pymatgen
data_Lu4Zr3O12
_symmetry_space_group_name_H-M   'P 1'
_cell_length_a   6.34642823
_cell_length_b   6.34368275
_cell_length_c   12.68640705
_cell_angle_alpha   99.42754458
_cell_angle_beta   99.15518353
_cell_angle_gamma   99.42869089
_symmetry_Int_Tables_number   1
_chemical_formula_structural   Lu4Zr3O12
_chemical_formula_sum   'Lu8 Zr6 O24'
_cell_volume   487.88855988
_cell_formula_units_Z   2
loop_
 _symmetry_equiv_pos_site_id
 _symmetry_equiv_pos_as_xyz
  1  'x, y, z'
loop_
 _atom_site_type_symbol
 _atom_site_label
 _atom_site_symmetry_multiplicity
 _atom_site_fract_x
 _atom_site_fract_y
 _atom_site_fract_z
 _atom_site_occupancy
  Lu  Lu0  1  0.138143  0.608983  0.653384  1
  Lu  Lu1  1  0.391019  0.687862  0.930269  1
  Lu  Lu2  1  0.389158  0.694967  0.430072  1
  Lu  Lu3  1  0.311459  0.140662  0.304624  1
  Lu  Lu4  1  0.608981  0.312138  0.569731  1
  Lu  Lu5  1  0.688541  0.859338  0.195376  1
  Lu  Lu6  1  0.861857  0.391017  0.846616  1
  Lu  Lu7  1  0.610842  0.305033  0.069928  1
  Zr  Zr8  1  0.005646  0.004353  0.501198  1
  Zr  Zr9  1  0.142798  0.612518  0.155356  1
  Zr  Zr10  1  0.994354  0.995647  0.998802  1
  Zr  Zr11  1  0.315368  0.143001  0.806114  1
  Zr  Zr12  1  0.684632  0.856999  0.693886  1
  Zr  Zr13  1  0.857202  0.387482  0.344644  1
  O  O14  1  0.057856  0.679263  0.963354  1
  O  O15  1  0.088277  0.952442  0.661676  1
  O  O16  1  0.045372  0.678872  0.455221  1
  O  O17  1  0.080953  0.932546  0.158742  1
  O  O18  1  0.179715  0.415871  0.787088  1
  O  O19  1  0.314973  0.079238  0.964036  1
  O  O20  1  0.424170  0.826069  0.784972  1
  O  O21  1  0.172441  0.428260  0.286968  1
  O  O22  1  0.320669  0.078248  0.472048  1
  O  O23  1  0.432578  0.589535  0.590933  1
  O  O24  1  0.410343  0.817328  0.282538  1
  O  O25  1  0.567422  0.410465  0.909067  1
  O  O26  1  0.420066  0.575780  0.090525  1
  O  O27  1  0.575830  0.173931  0.715028  1
  O  O28  1  0.579934  0.424220  0.409475  1
  O  O29  1  0.685027  0.920762  0.535964  1
  O  O30  1  0.820285  0.584129  0.712912  1
  O  O31  1  0.589657  0.182672  0.217462  1
  O  O32  1  0.679331  0.921752  0.027952  1
  O  O33  1  0.827559  0.571740  0.213032  1
  O  O34  1  0.911723  0.047558  0.838324  1
  O  O35  1  0.942144  0.320737  0.536646  1
  O  O36  1  0.919047  0.067454  0.341258  1
  O  O37  1  0.954628  0.321128  0.044779  1
