# generated using pymatgen
data_Mn(FeO2)2
_symmetry_space_group_name_H-M   'P 1'
_cell_length_a   6.15049370
_cell_length_b   6.10071649
_cell_length_c   30.39600554
_cell_angle_alpha   60.27972475
_cell_angle_beta   59.99808182
_cell_angle_gamma   59.83729374
_symmetry_Int_Tables_number   1
_chemical_formula_structural   Mn(FeO2)2
_chemical_formula_sum   'Mn10 Fe20 O40'
_cell_volume   807.15435148
_cell_formula_units_Z   10
loop_
 _symmetry_equiv_pos_site_id
 _symmetry_equiv_pos_as_xyz
  1  'x, y, z'
loop_
 _atom_site_type_symbol
 _atom_site_label
 _atom_site_symmetry_multiplicity
 _atom_site_fract_x
 _atom_site_fract_y
 _atom_site_fract_z
 _atom_site_occupancy
  Mn  Mn0  1  0.125585  0.128470  0.024810  1
  Mn  Mn1  1  0.002381  0.500143  0.099514  1
  Mn  Mn2  1  0.128669  0.127284  0.224312  1
  Mn  Mn3  1  0.128352  0.122436  0.425415  1
  Mn  Mn4  1  0.000682  0.497553  0.500560  1
  Mn  Mn5  1  0.120620  0.124349  0.627158  1
  Mn  Mn6  1  0.002588  0.501439  0.299683  1
  Mn  Mn7  1  0.122237  0.127152  0.825253  1
  Mn  Mn8  1  -0.001654  0.502359  0.700177  1
  Mn  Mn9  1  0.878815  0.874438  0.973800  1
  Fe  Fe10  1  0.502299  0.001466  0.099341  1
  Fe  Fe11  1  0.500029  0.503541  -0.000566  1
  Fe  Fe12  1  0.500882  0.499626  0.099371  1
  Fe  Fe13  1  0.497122  0.005267  0.299203  1
  Fe  Fe14  1  0.501837  0.498678  0.199326  1
  Fe  Fe15  1  0.498962  0.500552  0.298789  1
  Fe  Fe16  1  0.877569  0.875318  0.175025  1
  Fe  Fe17  1  0.498899  0.001195  0.500524  1
  Fe  Fe18  1  0.497350  0.496890  0.401208  1
  Fe  Fe19  1  0.499029  0.495707  0.500690  1
  Fe  Fe20  1  0.869269  0.876801  0.374784  1
  Fe  Fe21  1  0.499789  0.502585  0.600433  1
  Fe  Fe22  1  0.497639  0.501215  0.699990  1
  Fe  Fe23  1  0.875273  0.872543  0.575482  1
  Fe  Fe24  1  0.500283  0.497084  0.800101  1
  Fe  Fe25  1  0.497277  0.001283  0.700337  1
  Fe  Fe26  1  0.500532  0.499565  0.900134  1
  Fe  Fe27  1  0.867712  0.878192  0.775951  1
  Fe  Fe28  1  0.499613  -0.000479  0.900443  1
  Fe  Fe29  1  -0.001063  0.500570  0.899937  1
  O  O30  1  0.261870  0.274764  0.051888  1
  O  O31  1  0.261241  0.266580  0.141381  1
  O  O32  1  0.284367  0.716530  0.048981  1
  O  O33  1  0.709425  0.263920  0.050694  1
  O  O34  1  0.272175  0.257958  0.251759  1
  O  O35  1  0.284930  0.741584  0.147492  1
  O  O36  1  0.739976  0.733968  0.057842  1
  O  O37  1  0.270882  0.258719  0.342899  1
  O  O38  1  0.283726  0.716213  0.250103  1
  O  O39  1  0.721357  0.278181  0.149442  1
  O  O40  1  0.713438  0.256911  0.252762  1
  O  O41  1  0.748386  0.730309  0.146208  1
  O  O42  1  0.260007  0.266007  0.453507  1
  O  O43  1  0.265140  0.744143  0.349978  1
  O  O44  1  0.724502  0.739574  0.258759  1
  O  O45  1  0.722862  0.264749  0.351439  1
  O  O46  1  0.282337  0.250850  0.544030  1
  O  O47  1  0.262466  0.707389  0.453224  1
  O  O48  1  0.711945  0.261725  0.451769  1
  O  O49  1  0.729823  0.746040  0.350793  1
  O  O50  1  0.288076  0.740968  0.546758  1
  O  O51  1  0.259182  0.268648  0.653040  1
  O  O52  1  0.727483  0.754564  0.451771  1
  O  O53  1  0.737587  0.289327  0.546891  1
  O  O54  1  0.280288  0.717730  0.650489  1
  O  O55  1  0.261869  0.262689  0.742642  1
  O  O56  1  0.713162  0.258923  0.652286  1
  O  O57  1  0.743941  0.737049  0.545810  1
  O  O58  1  0.284737  0.739706  0.748406  1
  O  O59  1  0.263827  0.260190  0.853281  1
  O  O60  1  0.723270  0.278277  0.749156  1
  O  O61  1  0.736480  0.741398  0.656751  1
  O  O62  1  0.267773  0.268540  0.941795  1
  O  O63  1  0.266836  0.707032  0.854204  1
  O  O64  1  0.708308  0.263215  0.853704  1
  O  O65  1  0.741548  0.732124  0.747569  1
  O  O66  1  0.295744  0.732677  0.947230  1
  O  O67  1  0.728108  0.295090  0.947254  1
  O  O68  1  0.738963  0.728505  0.856955  1
  O  O69  1  0.733389  0.734011  0.947871  1
