# generated using pymatgen
data_Mn5(FeO3)4
_symmetry_space_group_name_H-M   'P 1'
_cell_length_a   6.12663685
_cell_length_b   6.11131680
_cell_length_c   13.68168011
_cell_angle_alpha   102.60088978
_cell_angle_beta   77.57979831
_cell_angle_gamma   89.67585345
_symmetry_Int_Tables_number   1
_chemical_formula_structural   Mn5(FeO3)4
_chemical_formula_sum   'Mn10 Fe8 O24'
_cell_volume   487.48461608
_cell_formula_units_Z   2
loop_
 _symmetry_equiv_pos_site_id
 _symmetry_equiv_pos_as_xyz
  1  'x, y, z'
loop_
 _atom_site_type_symbol
 _atom_site_label
 _atom_site_symmetry_multiplicity
 _atom_site_fract_x
 _atom_site_fract_y
 _atom_site_fract_z
 _atom_site_occupancy
  Mn  Mn0  1  0.501050  0.000338  0.998610  1
  Mn  Mn1  1  0.959092  0.794003  0.085006  1
  Mn  Mn2  1  0.830687  0.166941  0.333947  1
  Mn  Mn3  1  0.168358  0.335565  0.167582  1
  Mn  Mn4  1  0.290474  0.448172  0.415242  1
  Mn  Mn5  1  0.708807  0.536828  0.584037  1
  Mn  Mn6  1  0.372694  0.885907  0.250350  1
  Mn  Mn7  1  0.621855  0.126145  0.750488  1
  Mn  Mn8  1  0.168179  0.330691  0.665863  1
  Mn  Mn9  1  0.045650  0.206994  0.914753  1
  Fe  Fe10  1  0.504487  0.503536  0.999573  1
  Fe  Fe11  1  0.666238  0.335674  0.167929  1
  Fe  Fe12  1  0.499318  0.997642  0.499076  1
  Fe  Fe13  1  0.832675  0.666578  0.333651  1
  Fe  Fe14  1  0.997633  0.999062  0.499772  1
  Fe  Fe15  1  0.833789  0.665536  0.832904  1
  Fe  Fe16  1  0.163265  0.830130  0.668282  1
  Fe  Fe17  1  0.337779  0.667885  0.832475  1
  O  O18  1  0.896901  0.105412  0.183908  1
  O  O19  1  0.718341  0.244822  0.009048  1
  O  O20  1  0.923910  0.546768  0.167524  1
  O  O21  1  0.274524  0.254275  0.009290  1
  O  O22  1  0.408775  0.125626  0.165237  1
  O  O23  1  0.951255  0.087064  0.658070  1
  O  O24  1  0.435130  0.563246  0.158502  1
  O  O25  1  0.611789  0.397958  0.325672  1
  O  O26  1  0.754624  0.220837  0.486719  1
  O  O27  1  0.390217  0.084156  0.656100  1
  O  O28  1  0.241545  0.230671  0.514254  1
  O  O29  1  0.956549  0.572087  0.665213  1
  O  O30  1  0.749550  0.783505  0.500943  1
  O  O31  1  0.599762  0.940180  0.343814  1
  O  O32  1  0.058818  0.394761  0.326723  1
  O  O33  1  0.246471  0.780742  0.506033  1
  O  O34  1  0.383703  0.573822  0.672147  1
  O  O35  1  0.561460  0.440626  0.847266  1
  O  O36  1  0.053169  0.940605  0.344267  1
  O  O37  1  0.576473  0.888174  0.833402  1
  O  O38  1  0.718256  0.754716  0.999089  1
  O  O39  1  0.098529  0.425838  0.816329  1
  O  O40  1  0.282896  0.757012  0.991633  1
  O  O41  1  0.105324  0.889466  0.819280  1
