# generated using pymatgen
data_Mn11Cu7O24
_symmetry_space_group_name_H-M   'P 1'
_cell_length_a   6.06400736
_cell_length_b   10.56528440
_cell_length_c   8.35604567
_cell_angle_alpha   113.16250709
_cell_angle_beta   89.80344650
_cell_angle_gamma   71.38472555
_symmetry_Int_Tables_number   1
_chemical_formula_structural   Mn11Cu7O24
_chemical_formula_sum   'Mn11 Cu7 O24'
_cell_volume   461.31119710
_cell_formula_units_Z   1
loop_
 _symmetry_equiv_pos_site_id
 _symmetry_equiv_pos_as_xyz
  1  'x, y, z'
loop_
 _atom_site_type_symbol
 _atom_site_label
 _atom_site_symmetry_multiplicity
 _atom_site_fract_x
 _atom_site_fract_y
 _atom_site_fract_z
 _atom_site_occupancy
  Mn  Mn0  1  0.247307  0.498091  0.122531  1
  Mn  Mn1  1  0.077827  0.833106  0.290607  1
  Mn  Mn2  1  0.584400  0.332878  0.290579  1
  Mn  Mn3  1  0.749282  0.498893  0.623629  1
  Mn  Mn4  1  0.915663  0.167689  0.457841  1
  Mn  Mn5  1  0.585846  0.832989  0.790676  1
  Mn  Mn6  1  0.749566  0.000462  0.624397  1
  Mn  Mn7  1  0.250476  -0.000125  0.623313  1
  Mn  Mn8  1  0.414654  0.665917  0.956869  1
  Mn  Mn9  1  0.914917  0.666743  0.957585  1
  Mn  Mn10  1  0.422572  0.166840  0.957280  1
  Cu  Cu11  1  -0.000274  0.003622  0.002248  1
  Cu  Cu12  1  0.665746  0.662108  0.331340  1
  Cu  Cu13  1  0.084430  0.333026  0.290901  1
  Cu  Cu14  1  0.497509  0.003074  0.248355  1
  Cu  Cu15  1  0.168044  0.662674  0.578508  1
  Cu  Cu16  1  0.326748  0.333520  0.664683  1
  Cu  Cu17  1  0.841189  0.333255  0.918363  1
  O  O18  1  0.597820  0.820923  0.022966  1
  O  O19  1  0.085110  0.816901  0.044283  1
  O  O20  1  0.933389  0.659502  0.190767  1
  O  O21  1  0.387895  0.664393  0.193641  1
  O  O22  1  0.117198  0.331771  0.045098  1
  O  O23  1  0.564952  0.335238  0.052957  1
  O  O24  1  0.421708  0.182527  0.201793  1
  O  O25  1  0.063934  0.844347  0.532653  1
  O  O26  1  0.266222  0.485658  0.352634  1
  O  O27  1  0.902664  0.180399  0.228184  1
  O  O28  1  0.745550  0.483236  0.378968  1
  O  O29  1  0.578429  0.850305  0.559042  1
  O  O30  1  0.601663  0.327888  0.525900  1
  O  O31  1  0.052449  0.333235  0.536563  1
  O  O32  1  0.226463  0.006103  0.388613  1
  O  O33  1  0.437615  0.660936  0.718189  1
  O  O34  1  0.770552  0.002089  0.387517  1
  O  O35  1  0.895529  0.670077  0.721388  1
  O  O36  1  0.922441  0.148659  0.688124  1
  O  O37  1  0.744611  0.517686  0.872829  1
  O  O38  1  0.437516  0.154058  0.714213  1
  O  O39  1  0.230982  0.512728  0.892576  1
  O  O40  1  0.732688  0.005088  0.862445  1
  O  O41  1  0.276765  0.998881  0.862238  1
