# generated using pymatgen
data_Mn3(AgO2)4
_symmetry_space_group_name_H-M   'P 1'
_cell_length_a   9.27823447
_cell_length_b   9.25524988
_cell_length_c   8.88884486
_cell_angle_alpha   90.47720538
_cell_angle_beta   90.45169383
_cell_angle_gamma   89.83637533
_symmetry_Int_Tables_number   1
_chemical_formula_structural   Mn3(AgO2)4
_chemical_formula_sum   'Mn12 Ag16 O32'
_cell_volume   763.25308467
_cell_formula_units_Z   4
loop_
 _symmetry_equiv_pos_site_id
 _symmetry_equiv_pos_as_xyz
  1  'x, y, z'
loop_
 _atom_site_type_symbol
 _atom_site_label
 _atom_site_symmetry_multiplicity
 _atom_site_fract_x
 _atom_site_fract_y
 _atom_site_fract_z
 _atom_site_occupancy
  Mn  Mn0  1  0.075589  0.833331  0.873996  1
  Mn  Mn1  1  0.121370  0.583991  0.658038  1
  Mn  Mn2  1  0.167400  0.377225  0.408346  1
  Mn  Mn3  1  0.326758  0.626960  0.909255  1
  Mn  Mn4  1  0.369959  0.424470  0.161708  1
  Mn  Mn5  1  0.413770  0.169046  0.372277  1
  Mn  Mn6  1  0.582620  0.666267  0.122334  1
  Mn  Mn7  1  0.628236  0.914820  0.334253  1
  Mn  Mn8  1  0.668371  0.129241  0.581313  1
  Mn  Mn9  1  0.834471  0.869498  0.080798  1
  Mn  Mn10  1  0.878205  0.089194  0.831368  1
  Mn  Mn11  1  0.921238  0.331395  0.620743  1
  Ag  Ag12  1  0.202400  0.160641  0.010330  1
  Ag  Ag13  1  0.335487  0.978579  0.701131  1
  Ag  Ag14  1  0.616028  0.362479  0.879639  1
  Ag  Ag15  1  0.530143  0.502271  0.592061  1
  Ag  Ag16  1  0.913841  0.215294  0.210305  1
  Ag  Ag17  1  0.871254  0.623927  0.374491  1
  Ag  Ag18  1  0.782626  0.601338  0.822647  1
  Ag  Ag19  1  0.590065  0.811973  0.734543  1
  Ag  Ag20  1  0.345182  0.902001  0.119197  1
  Ag  Ag21  1  0.978188  0.476118  0.047326  1
  Ag  Ag22  1  0.691839  0.385187  0.326758  1
  Ag  Ag23  1  0.340628  0.285774  0.749323  1
  Ag  Ag24  1  0.555749  0.106094  0.012364  1
  Ag  Ag25  1  0.949014  0.888618  0.509489  1
  Ag  Ag26  1  0.110228  0.994822  0.271396  1
  Ag  Ag27  1  0.347170  0.741700  0.453642  1
  O  O28  1  0.036069  0.843167  0.087572  1
  O  O29  1  0.078349  0.038704  0.845218  1
  O  O30  1  0.096097  0.790681  0.662877  1
  O  O31  1  0.112373  0.617946  0.881798  1
  O  O32  1  0.132868  0.368835  0.630598  1
  O  O33  1  0.150982  0.581918  0.448442  1
  O  O34  1  0.168945  0.404409  0.197780  1
  O  O35  1  0.212383  0.168897  0.401471  1
  O  O36  1  0.283016  0.832765  0.894956  1
  O  O37  1  0.326430  0.595825  0.698031  1
  O  O38  1  0.339993  0.426007  0.949433  1
  O  O39  1  0.365756  0.636408  0.132417  1
  O  O40  1  0.382562  0.385708  0.386266  1
  O  O41  1  0.397741  0.216058  0.160186  1
  O  O42  1  0.423321  0.960325  0.344286  1
  O  O43  1  0.459200  0.151981  0.583531  1
  O  O44  1  0.533890  0.660062  0.908288  1
  O  O45  1  0.576091  0.460135  0.132886  1
  O  O46  1  0.595210  0.709494  0.334453  1
  O  O47  1  0.619127  0.879368  0.111786  1
  O  O48  1  0.632332  0.133383  0.361073  1
  O  O49  1  0.662577  0.926009  0.545283  1
  O  O50  1  0.674149  0.106541  0.793735  1
  O  O51  1  0.712923  0.334044  0.584263  1
  O  O52  1  0.788557  0.664779  0.088358  1
  O  O53  1  0.829442  0.899609  0.294695  1
  O  O54  1  0.838601  0.075374  0.040981  1
  O  O55  1  0.864658  0.864623  0.859665  1
  O  O56  1  0.882545  0.118603  0.609899  1
  O  O57  1  0.906118  0.293984  0.832048  1
  O  O58  1  0.919287  0.538861  0.637285  1
  O  O59  1  0.962758  0.347161  0.404627  1
