# generated using pymatgen
data_Mn3CoO8
_symmetry_space_group_name_H-M   'P 1'
_cell_length_a   8.24235091
_cell_length_b   8.24352399
_cell_length_c   8.24313194
_cell_angle_alpha   90.01073210
_cell_angle_beta   90.01857463
_cell_angle_gamma   89.99978303
_symmetry_Int_Tables_number   1
_chemical_formula_structural   Mn3CoO8
_chemical_formula_sum   'Mn12 Co4 O32'
_cell_volume   560.08794671
_cell_formula_units_Z   4
loop_
 _symmetry_equiv_pos_site_id
 _symmetry_equiv_pos_as_xyz
  1  'x, y, z'
loop_
 _atom_site_type_symbol
 _atom_site_label
 _atom_site_symmetry_multiplicity
 _atom_site_fract_x
 _atom_site_fract_y
 _atom_site_fract_z
 _atom_site_occupancy
  Mn  Mn0  1  0.127192  0.122872  0.624941  1
  Mn  Mn1  1  0.124971  0.372844  0.877117  1
  Mn  Mn2  1  0.122814  0.624991  0.127152  1
  Mn  Mn3  1  0.377168  0.374972  0.627140  1
  Mn  Mn4  1  0.374977  0.627130  0.377167  1
  Mn  Mn5  1  0.372853  0.877102  0.125000  1
  Mn  Mn6  1  0.627173  0.377128  0.375056  1
  Mn  Mn7  1  0.625010  0.127147  0.122869  1
  Mn  Mn8  1  0.622846  0.875024  0.872872  1
  Mn  Mn9  1  0.877194  0.125035  0.372865  1
  Mn  Mn10  1  0.875009  0.872894  0.622860  1
  Mn  Mn11  1  0.872830  0.622892  0.875005  1
  Co  Co12  1  0.124983  0.875035  0.374954  1
  Co  Co13  1  0.374971  0.124961  0.874982  1
  Co  Co14  1  0.624981  0.625001  0.625047  1
  Co  Co15  1  0.874972  0.375037  0.125023  1
  O  O16  1  0.112394  0.112897  0.390028  1
  O  O17  1  0.109997  0.887800  0.612802  1
  O  O18  1  0.107434  0.607425  0.892586  1
  O  O19  1  0.137139  0.137655  0.859808  1
  O  O20  1  0.112853  0.390091  0.112287  1
  O  O21  1  0.142497  0.357452  0.642493  1
  O  O22  1  0.140042  0.637167  0.362298  1
  O  O23  1  0.137639  0.859898  0.137131  1
  O  O24  1  0.362299  0.140035  0.637097  1
  O  O25  1  0.359939  0.362759  0.862284  1
  O  O26  1  0.357437  0.642507  0.142560  1
  O  O27  1  0.387171  0.609893  0.612294  1
  O  O28  1  0.362840  0.862248  0.359947  1
  O  O29  1  0.392514  0.392513  0.392501  1
  O  O30  1  0.390086  0.112280  0.112848  1
  O  O31  1  0.387690  0.887159  0.890040  1
  O  O32  1  0.612340  0.387149  0.609976  1
  O  O33  1  0.609920  0.612290  0.387243  1
  O  O34  1  0.607499  0.892527  0.107483  1
  O  O35  1  0.637135  0.362241  0.140123  1
  O  O36  1  0.612840  0.109908  0.887746  1
  O  O37  1  0.642604  0.142551  0.357466  1
  O  O38  1  0.640047  0.862859  0.637745  1
  O  O39  1  0.637645  0.640119  0.862839  1
  O  O40  1  0.862354  0.359965  0.362928  1
  O  O41  1  0.859966  0.137148  0.137719  1
  O  O42  1  0.857503  0.857498  0.857523  1
  O  O43  1  0.887176  0.890122  0.387692  1
  O  O44  1  0.862806  0.637748  0.640110  1
  O  O45  1  0.892582  0.107530  0.607429  1
  O  O46  1  0.889994  0.387745  0.887119  1
  O  O47  1  0.887675  0.612894  0.109946  1
