# generated using pymatgen
data_Ce3Y4O12
_symmetry_space_group_name_H-M   'P 1'
_cell_length_a   3.75906794
_cell_length_b   13.94079918
_cell_length_c   5.49971262
_cell_angle_alpha   101.18785582
_cell_angle_beta   90.00000000
_cell_angle_gamma   82.25163867
_symmetry_Int_Tables_number   1
_chemical_formula_structural   Ce3Y4O12
_chemical_formula_sum   'Ce3 Y4 O12'
_cell_volume   280.04928127
_cell_formula_units_Z   1
loop_
 _symmetry_equiv_pos_site_id
 _symmetry_equiv_pos_as_xyz
  1  'x, y, z'
loop_
 _atom_site_type_symbol
 _atom_site_label
 _atom_site_symmetry_multiplicity
 _atom_site_fract_x
 _atom_site_fract_y
 _atom_site_fract_z
 _atom_site_occupancy
  Ce  Ce0  1  0.856755  0.286491  0.145320  1
  Ce  Ce1  1  0.280308  0.439382  0.721800  1
  Ce  Ce2  1  0.424941  0.150118  0.567834  1
  Y  Y3  1  0.004151  0.991698  0.050975  1
  Y  Y4  1  0.572521  0.854958  0.428156  1
  Y  Y5  1  0.718178  0.563645  0.292565  1
  Y  Y6  1  0.142314  0.715372  0.805013  1
  O  O7  1  0.202286  0.595429  0.039482  1
  O  O8  1  0.085719  0.828562  0.164943  1
  O  O9  1  0.926373  0.147254  0.328248  1
  O  O10  1  0.357200  0.285601  0.388969  1
  O  O11  1  0.501712  0.996575  0.266300  1
  O  O12  1  0.787735  0.424531  0.466373  1
  O  O13  1  0.054893  0.890215  0.686894  1
  O  O14  1  0.217030  0.565939  0.532102  1
  O  O15  1  0.640567  0.718868  0.591185  1
  O  O16  1  0.784637  0.430725  0.970205  1
  O  O17  1  0.359448  0.281103  0.887244  1
  O  O18  1  0.940376  0.119247  0.809247  1
