# generated using pymatgen
data_Mn6Cr9O20
_symmetry_space_group_name_H-M   'P 1'
_cell_length_a   6.08249948
_cell_length_b   6.08249948
_cell_length_c   25.12227071
_cell_angle_alpha   96.95316185
_cell_angle_beta   90.00000000
_cell_angle_gamma   60.00000000
_symmetry_Int_Tables_number   1
_chemical_formula_structural   Mn6Cr9O20
_chemical_formula_sum   'Mn12 Cr18 O40'
_cell_volume   797.01889722
_cell_formula_units_Z   2
loop_
 _symmetry_equiv_pos_site_id
 _symmetry_equiv_pos_as_xyz
  1  'x, y, z'
loop_
 _atom_site_type_symbol
 _atom_site_label
 _atom_site_symmetry_multiplicity
 _atom_site_fract_x
 _atom_site_fract_y
 _atom_site_fract_z
 _atom_site_occupancy
  Mn  Mn0  1  0.824914  0.850172  0.025258  1
  Mn  Mn1  1  0.500000  0.499999  0.999999  1
  Mn  Mn2  1  0.775022  0.949957  0.174934  1
  Mn  Mn3  1  0.424978  0.650043  0.225066  1
  Mn  Mn4  1  0.375086  0.749828  0.374742  1
  Mn  Mn5  1  0.024914  0.450173  0.425259  1
  Mn  Mn6  1  0.700000  0.100001  0.400001  1
  Mn  Mn7  1  0.975006  0.549988  0.574982  1
  Mn  Mn8  1  0.625002  0.249997  0.624994  1
  Mn  Mn9  1  0.574998  0.350003  0.775006  1
  Mn  Mn10  1  0.224994  0.050012  0.825018  1
  Mn  Mn11  1  0.175086  0.149827  0.974741  1
  Cr  Cr12  1  0.299725  0.900549  0.100249  1
  Cr  Cr13  1  0.299725  0.399974  0.100249  1
  Cr  Cr14  1  0.800301  0.399974  0.100249  1
  Cr  Cr15  1  0.900275  0.699451  0.299751  1
  Cr  Cr16  1  0.100000  0.300000  0.200000  1
  Cr  Cr17  1  0.399699  0.200026  0.299751  1
  Cr  Cr18  1  0.900275  0.200026  0.299751  1
  Cr  Cr19  1  0.499709  0.500583  0.500253  1
  Cr  Cr20  1  0.299973  0.900055  0.600082  1
  Cr  Cr21  1  0.000330  0.999962  0.500253  1
  Cr  Cr22  1  0.600000  0.800000  0.700000  1
  Cr  Cr23  1  0.100000  0.800000  0.700000  1
  Cr  Cr24  1  0.499709  0.999962  0.500253  1
  Cr  Cr25  1  0.100000  0.300000  0.700000  1
  Cr  Cr26  1  0.900027  0.699945  0.799918  1
  Cr  Cr27  1  0.700291  0.600038  0.899747  1
  Cr  Cr28  1  0.199670  0.600038  0.899747  1
  Cr  Cr29  1  0.700291  0.099417  0.899747  1
  O  O30  1  0.180268  0.686791  0.053849  1
  O  O31  1  0.632942  0.686791  0.053849  1
  O  O32  1  0.632942  0.234117  0.053849  1
  O  O33  1  0.452689  0.594623  0.141933  1
  O  O34  1  0.147319  0.205362  0.058042  1
  O  O35  1  0.969145  0.561711  0.147385  1
  O  O36  1  0.019732  0.913209  0.346151  1
  O  O37  1  0.969145  0.116529  0.147385  1
  O  O38  1  0.414326  0.116529  0.147385  1
  O  O39  1  0.567058  0.913209  0.346151  1
  O  O40  1  0.785674  0.483471  0.252615  1
  O  O41  1  0.230855  0.483471  0.252615  1
  O  O42  1  0.230855  0.038289  0.252615  1
  O  O43  1  0.052681  0.394638  0.341958  1
  O  O44  1  0.832941  0.834118  0.453849  1
  O  O45  1  0.347320  0.805359  0.458039  1
  O  O46  1  0.747311  0.005377  0.258067  1
  O  O47  1  0.567058  0.365883  0.346151  1
  O  O48  1  0.614253  0.716576  0.547406  1
  O  O49  1  0.169171  0.716576  0.547406  1
  O  O50  1  0.832941  0.286790  0.453849  1
  O  O51  1  0.380269  0.286790  0.453849  1
  O  O52  1  0.652696  0.194608  0.541913  1
  O  O53  1  0.252713  0.994573  0.741859  1
  O  O54  1  0.430979  0.638042  0.652747  1
  O  O55  1  0.947287  0.605427  0.658141  1
  O  O56  1  0.769021  0.961958  0.747253  1
  O  O57  1  0.169171  0.161658  0.547406  1
  O  O58  1  0.214705  0.516274  0.747253  1
  O  O59  1  0.769021  0.516274  0.747253  1
  O  O60  1  0.430979  0.083726  0.652747  1
  O  O61  1  0.030829  0.883424  0.852594  1
  O  O62  1  0.985295  0.083726  0.652747  1
  O  O63  1  0.585747  0.883424  0.852594  1
  O  O64  1  0.852680  0.794641  0.941961  1
  O  O65  1  0.030829  0.438342  0.852594  1
  O  O66  1  0.547304  0.405392  0.858087  1
  O  O67  1  0.367059  0.765882  0.946151  1
  O  O68  1  0.819731  0.313210  0.946151  1
  O  O69  1  0.367059  0.313210  0.946151  1
