# generated using pymatgen
data_Mn2CuO4
_symmetry_space_group_name_H-M   'P 1'
_cell_length_a   6.11317591
_cell_length_b   6.11321673
_cell_length_c   17.69348435
_cell_angle_alpha   60.97371924
_cell_angle_beta   60.97485610
_cell_angle_gamma   58.12699543
_symmetry_Int_Tables_number   1
_chemical_formula_structural   Mn2CuO4
_chemical_formula_sum   'Mn12 Cu6 O24'
_cell_volume   467.06920450
_cell_formula_units_Z   6
loop_
 _symmetry_equiv_pos_site_id
 _symmetry_equiv_pos_as_xyz
  1  'x, y, z'
loop_
 _atom_site_type_symbol
 _atom_site_label
 _atom_site_symmetry_multiplicity
 _atom_site_fract_x
 _atom_site_fract_y
 _atom_site_fract_z
 _atom_site_occupancy
  Cu  Cu0  1  0.243000  0.242994  0.086967  1
  Cu  Cu1  1  0.242858  0.242873  0.422275  1
  Cu  Cu2  1  0.624206  0.624189  0.042217  1
  Cu  Cu3  1  0.245185  0.245202  0.751063  1
  Cu  Cu4  1  0.625997  0.625991  0.375621  1
  Cu  Cu5  1  0.005239  0.005255  0.664287  1
  Mn  Mn6  1  0.009507  0.009497  0.995642  1
  Mn  Mn7  1  0.126503  0.622783  0.208605  1
  Mn  Mn8  1  0.622791  0.126494  0.208605  1
  Mn  Mn9  1  0.009453  0.009435  0.329657  1
  Mn  Mn10  1  0.624920  0.624914  0.207472  1
  Mn  Mn11  1  0.128295  0.625553  0.541952  1
  Mn  Mn12  1  0.625552  0.128300  0.541950  1
  Mn  Mn13  1  0.626128  0.626132  0.540955  1
  Mn  Mn14  1  0.123815  0.623757  0.874619  1
  Mn  Mn15  1  0.623748  0.123820  0.874620  1
  Mn  Mn16  1  0.624911  0.624921  0.707772  1
  Mn  Mn17  1  0.624904  0.624906  0.874209  1
  O  O18  1  0.373871  0.373871  0.133727  1
  O  O19  1  0.373021  0.830128  0.134728  1
  O  O20  1  0.371609  0.371595  0.284295  1
  O  O21  1  0.379034  0.379046  0.465226  1
  O  O22  1  0.422313  0.872843  0.281759  1
  O  O23  1  0.830133  0.373020  0.134729  1
  O  O24  1  0.875365  0.875365  0.134073  1
  O  O25  1  0.379643  0.836564  0.466460  1
  O  O26  1  0.872858  0.422299  0.281761  1
  O  O27  1  0.376434  0.376429  0.616407  1
  O  O28  1  0.375680  0.375685  0.799660  1
  O  O29  1  0.416730  0.866541  0.619680  1
  O  O30  1  0.871731  0.871713  0.283952  1
  O  O31  1  0.836559  0.379658  0.466460  1
  O  O32  1  0.873977  0.873984  0.468691  1
  O  O33  1  0.380817  0.830670  0.797821  1
  O  O34  1  0.866546  0.416733  0.619681  1
  O  O35  1  0.374191  0.374217  0.950857  1
  O  O36  1  0.830668  0.380860  0.797817  1
  O  O37  1  0.871241  0.871242  0.619140  1
  O  O38  1  0.420894  0.869976  0.948888  1
  O  O39  1  0.874790  0.874777  0.798767  1
  O  O40  1  0.870021  0.420892  0.948883  1
  O  O41  1  0.874864  0.874874  0.948050  1
