# generated using pymatgen
data_Mn3FeO8
_symmetry_space_group_name_H-M   'P 1'
_cell_length_a   8.31874587
_cell_length_b   8.29070079
_cell_length_c   8.31155488
_cell_angle_alpha   89.89859566
_cell_angle_beta   89.98527516
_cell_angle_gamma   89.91392678
_symmetry_Int_Tables_number   1
_chemical_formula_structural   Mn3FeO8
_chemical_formula_sum   'Mn12 Fe4 O32'
_cell_volume   573.23169018
_cell_formula_units_Z   4
loop_
 _symmetry_equiv_pos_site_id
 _symmetry_equiv_pos_as_xyz
  1  'x, y, z'
loop_
 _atom_site_type_symbol
 _atom_site_label
 _atom_site_symmetry_multiplicity
 _atom_site_fract_x
 _atom_site_fract_y
 _atom_site_fract_z
 _atom_site_occupancy
  Mn  Mn0  1  0.121545  0.125261  0.627317  1
  Mn  Mn1  1  0.124498  0.376259  0.871581  1
  Mn  Mn2  1  0.125299  0.627183  0.121374  1
  Mn  Mn3  1  0.371289  0.377048  0.623701  1
  Mn  Mn4  1  0.376529  0.623064  0.373380  1
  Mn  Mn5  1  0.375576  0.870608  0.124316  1
  Mn  Mn6  1  0.623683  0.374255  0.374201  1
  Mn  Mn7  1  0.627468  0.121670  0.125673  1
  Mn  Mn8  1  0.627174  0.874770  0.879509  1
  Mn  Mn9  1  0.871685  0.124412  0.375487  1
  Mn  Mn10  1  0.877582  0.876637  0.627944  1
  Mn  Mn11  1  0.876797  0.628147  0.875781  1
  Fe  Fe12  1  0.124610  0.874826  0.374678  1
  Fe  Fe13  1  0.374824  0.123954  0.875256  1
  Fe  Fe14  1  0.625968  0.625748  0.626178  1
  Fe  Fe15  1  0.875304  0.375843  0.123801  1
  O  O16  1  0.108500  0.106403  0.391213  1
  O  O17  1  0.107110  0.893334  0.619256  1
  O  O18  1  0.110998  0.610590  0.889799  1
  O  O19  1  0.132559  0.144313  0.858203  1
  O  O20  1  0.105973  0.390400  0.108480  1
  O  O21  1  0.139324  0.360588  0.638258  1
  O  O22  1  0.140279  0.644039  0.357533  1
  O  O23  1  0.145185  0.858550  0.130977  1
  O  O24  1  0.358233  0.140226  0.644259  1
  O  O25  1  0.356058  0.366325  0.856596  1
  O  O26  1  0.360037  0.638367  0.139366  1
  O  O27  1  0.382817  0.608345  0.604713  1
  O  O28  1  0.364349  0.857371  0.356642  1
  O  O29  1  0.389534  0.388447  0.389011  1
  O  O30  1  0.391122  0.108649  0.105411  1
  O  O31  1  0.395300  0.883297  0.891902  1
  O  O32  1  0.607304  0.392689  0.608835  1
  O  O33  1  0.606651  0.606936  0.383281  1
  O  O34  1  0.610696  0.889197  0.111416  1
  O  O35  1  0.643405  0.358014  0.140068  1
  O  O36  1  0.617159  0.106948  0.893024  1
  O  O37  1  0.638985  0.139780  0.360762  1
  O  O38  1  0.641016  0.856832  0.642593  1
  O  O39  1  0.644820  0.641505  0.866541  1
  O  O40  1  0.857016  0.357345  0.363511  1
  O  O41  1  0.857563  0.130624  0.144786  1
  O  O42  1  0.860099  0.861509  0.860787  1
  O  O43  1  0.886133  0.891189  0.395086  1
  O  O44  1  0.867059  0.643468  0.643563  1
  O  O45  1  0.889561  0.111469  0.610311  1
  O  O46  1  0.891354  0.394401  0.886206  1
  O  O47  1  0.893973  0.619300  0.107579  1
