# generated using pymatgen
data_Mn3W3C
_symmetry_space_group_name_H-M   'P 1'
_cell_length_a   7.87333441
_cell_length_b   7.87333440
_cell_length_c   7.87333441
_cell_angle_alpha   60.00000001
_cell_angle_beta   60.00000003
_cell_angle_gamma   60.00000000
_symmetry_Int_Tables_number   1
_chemical_formula_structural   Mn3W3C
_chemical_formula_sum   'Mn12 W12 C4'
_cell_volume   345.11282242
_cell_formula_units_Z   4
loop_
 _symmetry_equiv_pos_site_id
 _symmetry_equiv_pos_as_xyz
  1  'x, y, z'
loop_
 _atom_site_type_symbol
 _atom_site_label
 _atom_site_symmetry_multiplicity
 _atom_site_fract_x
 _atom_site_fract_y
 _atom_site_fract_z
 _atom_site_occupancy
  C  C0  1  0.000000  0.500000  0.000000  1
  C  C1  1  0.000000  0.000000  0.500000  1
  C  C2  1  0.500000  0.000000  0.000000  1
  C  C3  1  0.000000  0.000000  0.000000  1
  Mn  Mn4  1  0.500000  0.000000  0.500000  1
  Mn  Mn5  1  0.296961  0.296961  0.609116  1
  Mn  Mn6  1  0.609116  0.296961  0.296961  1
  Mn  Mn7  1  0.703039  0.703039  0.703039  1
  Mn  Mn8  1  0.390884  0.703039  0.703039  1
  Mn  Mn9  1  0.703039  0.390884  0.703039  1
  Mn  Mn10  1  0.703039  0.703039  0.390884  1
  Mn  Mn11  1  0.296961  0.296961  0.296961  1
  Mn  Mn12  1  0.000000  0.500000  0.500000  1
  Mn  Mn13  1  0.500000  0.500000  0.000000  1
  Mn  Mn14  1  0.500000  0.500000  0.500000  1
  Mn  Mn15  1  0.296961  0.609116  0.296961  1
  W  W16  1  0.926520  0.323480  0.926520  1
  W  W17  1  0.323480  0.926520  0.323480  1
  W  W18  1  0.073480  0.676520  0.073480  1
  W  W19  1  0.073480  0.073480  0.676520  1
  W  W20  1  0.676520  0.676520  0.073480  1
  W  W21  1  0.676520  0.073480  0.676520  1
  W  W22  1  0.323480  0.926520  0.926520  1
  W  W23  1  0.073480  0.676520  0.676520  1
  W  W24  1  0.926520  0.323480  0.323480  1
  W  W25  1  0.926520  0.926520  0.323480  1
  W  W26  1  0.676520  0.073480  0.073480  1
  W  W27  1  0.323480  0.323480  0.926520  1
