# generated using pymatgen
data_Mn6Zn3O16
_symmetry_space_group_name_H-M   'P 1'
_cell_length_a   8.29311202
_cell_length_b   8.30202949
_cell_length_c   8.29529653
_cell_angle_alpha   90.00000000
_cell_angle_beta   90.00000000
_cell_angle_gamma   89.60737403
_symmetry_Int_Tables_number   1
_chemical_formula_structural   Mn6Zn3O16
_chemical_formula_sum   'Mn12 Zn6 O32'
_cell_volume   571.11494071
_cell_formula_units_Z   2
loop_
 _symmetry_equiv_pos_site_id
 _symmetry_equiv_pos_as_xyz
  1  'x, y, z'
loop_
 _atom_site_type_symbol
 _atom_site_label
 _atom_site_symmetry_multiplicity
 _atom_site_fract_x
 _atom_site_fract_y
 _atom_site_fract_z
 _atom_site_occupancy
  Mn  Mn0  1  0.122800  0.125140  0.625815  1
  Mn  Mn1  1  0.121400  0.626479  0.125648  1
  Mn  Mn2  1  0.123463  0.373873  0.875758  1
  Mn  Mn3  1  0.378600  0.373521  0.625648  1
  Mn  Mn4  1  0.376537  0.626127  0.375758  1
  Mn  Mn5  1  0.377200  0.874860  0.125815  1
  Mn  Mn6  1  0.624367  0.122777  0.122137  1
  Mn  Mn7  1  0.625631  0.381416  0.379593  1
  Mn  Mn8  1  0.624534  0.878129  0.877402  1
  Mn  Mn9  1  0.875466  0.121871  0.377402  1
  Mn  Mn10  1  0.874369  0.618584  0.879593  1
  Mn  Mn11  1  0.875633  0.877223  0.622137  1
  Zn  Zn12  1  0.996709  0.001419  0.002123  1
  Zn  Zn13  1  0.991216  0.504100  0.497171  1
  Zn  Zn14  1  0.246507  0.247848  0.246826  1
  Zn  Zn15  1  0.253493  0.752152  0.746826  1
  Zn  Zn16  1  0.503291  0.998581  0.502123  1
  Zn  Zn17  1  0.508784  0.495900  0.997171  1
  O  O18  1  0.100372  0.136371  0.393163  1
  O  O19  1  0.134638  0.394430  0.100749  1
  O  O20  1  0.115318  0.148586  0.858274  1
  O  O21  1  0.136267  0.362885  0.637509  1
  O  O22  1  0.141774  0.613714  0.350617  1
  O  O23  1  0.148758  0.856399  0.113256  1
  O  O24  1  0.115314  0.612290  0.887120  1
  O  O25  1  0.106454  0.899317  0.636614  1
  O  O26  1  0.393546  0.100683  0.136614  1
  O  O27  1  0.384686  0.387710  0.387120  1
  O  O28  1  0.351242  0.143601  0.613256  1
  O  O29  1  0.358226  0.386286  0.850617  1
  O  O30  1  0.363733  0.637115  0.137509  1
  O  O31  1  0.384682  0.851414  0.358274  1
  O  O32  1  0.365362  0.605570  0.600749  1
  O  O33  1  0.399628  0.863629  0.893163  1
  O  O34  1  0.638367  0.137535  0.362465  1
  O  O35  1  0.639714  0.102434  0.901992  1
  O  O36  1  0.610964  0.348762  0.146641  1
  O  O37  1  0.598918  0.360205  0.599755  1
  O  O38  1  0.603133  0.597507  0.362562  1
  O  O39  1  0.650597  0.642680  0.885781  1
  O  O40  1  0.609924  0.888759  0.111512  1
  O  O41  1  0.644398  0.884491  0.649517  1
  O  O42  1  0.855602  0.115509  0.149517  1
  O  O43  1  0.890076  0.111241  0.611512  1
  O  O44  1  0.849403  0.357320  0.385781  1
  O  O45  1  0.896867  0.402493  0.862562  1
  O  O46  1  0.901082  0.639795  0.099755  1
  O  O47  1  0.889036  0.651238  0.646641  1
  O  O48  1  0.860286  0.897566  0.401992  1
  O  O49  1  0.861633  0.862465  0.862465  1
