# generated using pymatgen
data_Mn13Fe11O32
_symmetry_space_group_name_H-M   'P 1'
_cell_length_a   6.16525083
_cell_length_b   6.06801790
_cell_length_c   20.52926149
_cell_angle_alpha   98.20481539
_cell_angle_beta   100.27053790
_cell_angle_gamma   60.69731590
_symmetry_Int_Tables_number   1
_chemical_formula_structural   Mn13Fe11O32
_chemical_formula_sum   'Mn13 Fe11 O32'
_cell_volume   657.63768651
_cell_formula_units_Z   1
loop_
 _symmetry_equiv_pos_site_id
 _symmetry_equiv_pos_as_xyz
  1  'x, y, z'
loop_
 _atom_site_type_symbol
 _atom_site_label
 _atom_site_symmetry_multiplicity
 _atom_site_fract_x
 _atom_site_fract_y
 _atom_site_fract_z
 _atom_site_occupancy
  Mn  Mn0  1  0.687113  0.688220  0.062538  1
  Mn  Mn1  1  0.350130  0.339755  0.031096  1
  Mn  Mn2  1  0.213710  0.719249  0.156475  1
  Mn  Mn3  1  0.745124  0.749218  0.250966  1
  Mn  Mn4  1  0.003613  0.997979  0.000511  1
  Mn  Mn5  1  0.442376  0.438282  0.311534  1
  Mn  Mn6  1  0.837370  0.847745  0.531404  1
  Mn  Mn7  1  0.973790  0.468251  0.406025  1
  Mn  Mn8  1  0.500387  0.499280  0.499962  1
  Mn  Mn9  1  0.930576  0.942364  0.812261  1
  Mn  Mn10  1  0.183887  0.189521  0.561989  1
  Mn  Mn11  1  0.593750  0.593750  0.781250  1
  Mn  Mn12  1  0.256924  0.245136  0.750239  1
  Fe  Fe13  1  0.718226  0.217794  0.156808  1
  Fe  Fe14  1  0.215152  0.221062  0.156234  1
  Fe  Fe15  1  0.469274  0.969706  0.405692  1
  Fe  Fe16  1  0.972348  0.966438  0.406266  1
  Fe  Fe17  1  0.093750  0.093750  0.281250  1
  Fe  Fe18  1  0.720954  0.716372  0.655837  1
  Fe  Fe19  1  0.220765  0.715620  0.656097  1
  Fe  Fe20  1  0.720378  0.218307  0.656195  1
  Fe  Fe21  1  0.467122  0.969193  0.906305  1
  Fe  Fe22  1  0.966735  0.471880  0.906403  1
  Fe  Fe23  1  0.466546  0.471128  0.906663  1
  O  O24  1  0.364509  0.916636  0.215072  1
  O  O25  1  0.901704  0.940665  0.219622  1
  O  O26  1  0.527467  0.496137  0.092122  1
  O  O27  1  0.059290  0.525529  0.100825  1
  O  O28  1  0.504326  0.067400  0.097673  1
  O  O29  1  0.260851  0.815043  0.347944  1
  O  O30  1  0.405295  0.410576  0.208144  1
  O  O31  1  0.926649  0.372457  0.214556  1
  O  O32  1  0.782205  0.776924  0.354356  1
  O  O33  1  0.029742  0.027922  0.104364  1
  O  O34  1  0.128210  0.661971  0.461675  1
  O  O35  1  0.660033  0.691363  0.470378  1
  O  O36  1  0.285796  0.246835  0.342878  1
  O  O37  1  0.822991  0.270864  0.347428  1
  O  O38  1  0.915986  0.897779  0.708966  1
  O  O39  1  0.157758  0.159578  0.458136  1
  O  O40  1  0.006862  0.570730  0.596165  1
  O  O41  1  0.523597  0.538261  0.603212  1
  O  O42  1  0.683174  0.120100  0.464827  1
  O  O43  1  0.433130  0.862572  0.716558  1
  O  O44  1  0.886028  0.411921  0.710644  1
  O  O45  1  0.432737  0.419353  0.716720  1
  O  O46  1  0.008196  0.013865  0.594676  1
  O  O47  1  0.554954  0.023108  0.601465  1
  O  O48  1  0.301472  0.775579  0.851856  1
  O  O49  1  0.754763  0.768147  0.845780  1
  O  O50  1  0.754370  0.324928  0.845942  1
  O  O51  1  0.663903  0.649239  0.959288  1
  O  O52  1  0.180638  0.616770  0.966335  1
  O  O53  1  0.271514  0.289721  0.853534  1
  O  O54  1  0.632546  0.164392  0.961035  1
  O  O55  1  0.179304  0.173635  0.967824  1
