# generated using pymatgen
data_Mn17Nb31N48
_symmetry_space_group_name_H-M   'P 1'
_cell_length_a   5.33662400
_cell_length_b   5.33662393
_cell_length_c   40.37008837
_cell_angle_alpha   90.00000000
_cell_angle_beta   90.00000000
_cell_angle_gamma   120.00000045
_symmetry_Int_Tables_number   1
_chemical_formula_structural   Mn17Nb31N48
_chemical_formula_sum   'Mn17 Nb31 N48'
_cell_volume   995.68859789
_cell_formula_units_Z   1
loop_
 _symmetry_equiv_pos_site_id
 _symmetry_equiv_pos_as_xyz
  1  'x, y, z'
loop_
 _atom_site_type_symbol
 _atom_site_label
 _atom_site_symmetry_multiplicity
 _atom_site_fract_x
 _atom_site_fract_y
 _atom_site_fract_z
 _atom_site_occupancy
  Mn  Mn0  1  0.000000  0.000000  0.125000  1
  Mn  Mn1  1  0.000000  0.000000  0.376172  1
  Mn  Mn2  1  0.000000  0.000000  -0.000977  1
  Mn  Mn3  1  0.333333  0.666667  0.125000  1
  Mn  Mn4  1  0.000000  0.000000  0.250977  1
  Mn  Mn5  1  0.333333  0.666667  0.375764  1
  Mn  Mn6  1  0.333333  0.666667  0.499569  1
  Mn  Mn7  1  0.000000  0.000000  0.499514  1
  Mn  Mn8  1  0.333333  0.666667  0.750431  1
  Mn  Mn9  1  0.333333  0.666667  0.874236  1
  Mn  Mn10  1  0.000000  0.000000  0.750486  1
  Mn  Mn11  1  0.000000  0.000000  0.873828  1
  Mn  Mn12  1  0.666667  0.333333  -0.000621  1
  Mn  Mn13  1  0.000000  0.000000  0.625000  1
  Mn  Mn14  1  0.666667  0.333333  0.250621  1
  Mn  Mn15  1  0.666667  0.333333  0.499374  1
  Mn  Mn16  1  0.666667  0.333333  0.750626  1
  Nb  Nb17  1  0.000167  0.669052  0.188033  1
  Nb  Nb18  1  0.003140  0.670475  0.438712  1
  Nb  Nb19  1  -0.000132  0.669066  0.688631  1
  Nb  Nb20  1  0.000189  0.669219  0.936938  1
  Nb  Nb21  1  0.330948  -0.000167  0.061967  1
  Nb  Nb22  1  0.330781  -0.000189  0.313062  1
  Nb  Nb23  1  0.330934  0.000132  0.561369  1
  Nb  Nb24  1  0.000167  0.331115  0.061967  1
  Nb  Nb25  1  0.000189  0.330970  0.313062  1
  Nb  Nb26  1  -0.000132  0.330803  0.561369  1
  Nb  Nb27  1  0.333333  0.666667  0.999322  1
  Nb  Nb28  1  0.333333  0.666667  0.250678  1
  Nb  Nb29  1  0.333333  0.666667  0.625000  1
  Nb  Nb30  1  0.330948  0.331115  0.188033  1
  Nb  Nb31  1  0.329525  0.332665  0.438712  1
  Nb  Nb32  1  0.330934  0.330803  0.688631  1
  Nb  Nb33  1  0.330781  0.330970  0.936938  1
  Nb  Nb34  1  0.329525  -0.003140  0.811288  1
  Nb  Nb35  1  0.668885  0.669052  0.061967  1
  Nb  Nb36  1  0.669197  0.669066  0.561369  1
  Nb  Nb37  1  0.669030  0.669219  0.313062  1
  Nb  Nb38  1  0.667335  0.670475  0.811288  1
  Nb  Nb39  1  0.666667  0.333333  0.125000  1
  Nb  Nb40  1  0.666667  0.333333  0.376133  1
  Nb  Nb41  1  0.666667  0.333333  0.625000  1
  Nb  Nb42  1  0.666667  0.333333  0.873867  1
  Nb  Nb43  1  0.668885  -0.000167  0.188033  1
  Nb  Nb44  1  0.667335  -0.003140  0.438712  1
  Nb  Nb45  1  0.669197  0.000132  0.688631  1
  Nb  Nb46  1  0.669030  -0.000189  0.936938  1
  Nb  Nb47  1  0.003140  0.332665  0.811288  1
  N  N48  1  -0.003450  0.665027  0.029277  1
  N  N49  1  -0.001386  0.660730  0.529293  1
  N  N50  1  -0.003608  0.663922  0.280367  1
  N  N51  1  0.002391  0.666408  0.345464  1
  N  N52  1  0.001965  0.666177  0.094597  1
  N  N53  1  0.000830  0.671864  0.594228  1
  N  N54  1  0.999298  0.659791  0.779220  1
  N  N55  1  -0.000844  0.667531  0.844134  1
  N  N56  1  0.002391  0.335983  0.904536  1
  N  N57  1  0.000830  0.328966  0.655772  1
  N  N58  1  0.334973  0.331524  0.029277  1
  N  N59  1  0.336078  0.332470  0.280367  1
  N  N60  1  0.339270  0.337883  0.529293  1
  N  N61  1  0.340209  0.339508  0.779220  1
  N  N62  1  0.333823  0.335788  0.094597  1
  N  N63  1  0.333592  0.335983  0.345464  1
  N  N64  1  0.328136  0.328966  0.594228  1
  N  N65  1  0.332469  0.331625  0.844134  1
  N  N66  1  0.671034  -0.000830  0.594228  1
  N  N67  1  0.668476  0.003450  0.029277  1
  N  N68  1  0.667530  0.003608  0.280367  1
  N  N69  1  0.662117  0.001386  0.529293  1
  N  N70  1  0.333823  0.998035  0.155403  1
  N  N71  1  0.332469  0.000844  0.405866  1
  N  N72  1  0.334973  0.003450  0.220723  1
  N  N73  1  0.328136  -0.000830  0.655772  1
  N  N74  1  0.340209  0.000702  0.470780  1
  N  N75  1  0.333592  -0.002391  0.904536  1
  N  N76  1  0.339270  0.001386  0.720707  1
  N  N77  1  0.336078  0.003608  0.969633  1
  N  N78  1  0.664212  0.666177  0.155403  1
  N  N79  1  0.668476  0.665027  0.220723  1
  N  N80  1  0.668375  0.667531  0.405866  1
  N  N81  1  0.660492  0.659791  0.470780  1
  N  N82  1  0.664017  0.666408  0.904536  1
  N  N83  1  0.662117  0.660730  0.720707  1
  N  N84  1  0.671034  0.671864  0.655772  1
  N  N85  1  0.667530  0.663922  0.969633  1
  N  N86  1  0.664017  -0.002391  0.345464  1
  N  N87  1  0.664212  0.998035  0.094597  1
  N  N88  1  0.668375  0.000844  0.844134  1
  N  N89  1  0.660492  0.000702  0.779220  1
  N  N90  1  0.001965  0.335788  0.155403  1
  N  N91  1  -0.003450  0.331524  0.220723  1
  N  N92  1  0.999298  0.339508  0.470780  1
  N  N93  1  -0.000844  0.331625  0.405866  1
  N  N94  1  -0.001386  0.337883  0.720707  1
  N  N95  1  -0.003608  0.332470  0.969633  1
