# generated using pymatgen
data_Mn9(Cu3O10)2
_symmetry_space_group_name_H-M   'P 1'
_cell_length_a   6.03159100
_cell_length_b   6.03159063
_cell_length_c   29.73572121
_cell_angle_alpha   60.58612736
_cell_angle_beta   60.58612937
_cell_angle_gamma   59.58707051
_symmetry_Int_Tables_number   1
_chemical_formula_structural   Mn9(Cu3O10)2
_chemical_formula_sum   'Mn18 Cu12 O40'
_cell_volume   769.16864058
_cell_formula_units_Z   2
loop_
 _symmetry_equiv_pos_site_id
 _symmetry_equiv_pos_as_xyz
  1  'x, y, z'
loop_
 _atom_site_type_symbol
 _atom_site_label
 _atom_site_symmetry_multiplicity
 _atom_site_fract_x
 _atom_site_fract_y
 _atom_site_fract_z
 _atom_site_occupancy
  Mn  Mn0  1  0.007077  0.007077  0.999441  1
  Mn  Mn1  1  0.010672  0.010672  0.197498  1
  Mn  Mn2  1  0.125908  0.623729  0.125005  1
  Mn  Mn3  1  0.623729  0.125908  0.125005  1
  Mn  Mn4  1  0.004667  0.004667  0.398961  1
  Mn  Mn5  1  0.625688  0.625688  0.025122  1
  Mn  Mn6  1  0.126999  0.624432  0.324932  1
  Mn  Mn7  1  0.624432  0.126999  0.324932  1
  Mn  Mn8  1  0.005612  0.005612  0.599992  1
  Mn  Mn9  1  0.624737  0.624737  0.324829  1
  Mn  Mn10  1  0.127428  0.624157  0.524965  1
  Mn  Mn11  1  0.624157  0.127428  0.524965  1
  Mn  Mn12  1  0.124545  0.621980  0.725867  1
  Mn  Mn13  1  0.621980  0.124545  0.725867  1
  Mn  Mn14  1  0.622732  0.622732  0.625863  1
  Mn  Mn15  1  0.127368  0.627663  0.923738  1
  Mn  Mn16  1  0.627663  0.127368  0.923738  1
  Mn  Mn17  1  0.626049  0.626049  0.824618  1
  Cu  Cu18  1  0.247701  0.247701  0.049293  1
  Cu  Cu19  1  0.248104  0.248104  0.250569  1
  Cu  Cu20  1  0.624808  0.624808  0.125097  1
  Cu  Cu21  1  0.241055  0.241055  0.452086  1
  Cu  Cu22  1  0.626798  0.626798  0.224788  1
  Cu  Cu23  1  0.622770  0.622770  0.425966  1
  Cu  Cu24  1  0.244389  0.244389  0.650944  1
  Cu  Cu25  1  0.002797  0.002797  0.800079  1
  Cu  Cu26  1  0.624349  0.624349  0.524731  1
  Cu  Cu27  1  0.247877  0.247877  0.849356  1
  Cu  Cu28  1  0.623418  0.623418  0.725608  1
  Cu  Cu29  1  0.626682  0.626682  0.923959  1
  O  O30  1  0.378073  0.378073  0.078633  1
  O  O31  1  0.376326  0.376326  0.169350  1
  O  O32  1  0.379221  0.834208  0.077038  1
  O  O33  1  0.834208  0.379221  0.077038  1
  O  O34  1  0.376144  0.376144  0.281257  1
  O  O35  1  0.417959  0.874676  0.170847  1
  O  O36  1  0.874676  0.417959  0.170847  1
  O  O37  1  0.381728  0.835564  0.279753  1
  O  O38  1  0.379862  0.379862  0.371534  1
  O  O39  1  0.871719  0.871719  0.081550  1
  O  O40  1  0.835564  0.381728  0.279753  1
  O  O41  1  0.876455  0.876455  0.168834  1
  O  O42  1  0.369979  0.369979  0.481876  1
  O  O43  1  0.417941  0.866551  0.370393  1
  O  O44  1  0.866551  0.417941  0.370393  1
  O  O45  1  0.374748  0.374748  0.569636  1
  O  O46  1  0.373134  0.833365  0.479454  1
  O  O47  1  0.868269  0.868269  0.279675  1
  O  O48  1  0.833365  0.373134  0.479454  1
  O  O49  1  0.873166  0.873166  0.368537  1
  O  O50  1  0.419102  0.867383  0.572823  1
  O  O51  1  0.376788  0.376788  0.678371  1
  O  O52  1  0.380383  0.380383  0.768035  1
  O  O53  1  0.867383  0.419102  0.572823  1
  O  O54  1  0.872418  0.872418  0.481577  1
  O  O55  1  0.378000  0.833991  0.677122  1
  O  O56  1  0.833991  0.378000  0.677122  1
  O  O57  1  0.869878  0.869878  0.570929  1
  O  O58  1  0.412766  0.870723  0.773493  1
  O  O59  1  0.381642  0.381642  0.876973  1
  O  O60  1  0.380237  0.380237  0.967687  1
  O  O61  1  0.870723  0.412766  0.773493  1
  O  O62  1  0.866858  0.866858  0.683368  1
  O  O63  1  0.379862  0.837294  0.876574  1
  O  O64  1  0.837294  0.379862  0.876574  1
  O  O65  1  0.868620  0.868620  0.773168  1
  O  O66  1  0.419099  0.869904  0.972242  1
  O  O67  1  0.869904  0.419099  0.972242  1
  O  O68  1  0.871810  0.871810  0.881008  1
  O  O69  1  0.871961  0.871961  0.970711  1
