# generated using pymatgen
data_Mn19Fe17O48
_symmetry_space_group_name_H-M   'P 1'
_cell_length_a   6.14860529
_cell_length_b   6.13409722
_cell_length_c   36.80678250
_cell_angle_alpha   60.00197373
_cell_angle_beta   60.13179570
_cell_angle_gamma   60.07801871
_symmetry_Int_Tables_number   1
_chemical_formula_structural   Mn19Fe17O48
_chemical_formula_sum   'Mn19 Fe17 O48'
_cell_volume   983.18051875
_cell_formula_units_Z   1
loop_
 _symmetry_equiv_pos_site_id
 _symmetry_equiv_pos_as_xyz
  1  'x, y, z'
loop_
 _atom_site_type_symbol
 _atom_site_label
 _atom_site_symmetry_multiplicity
 _atom_site_fract_x
 _atom_site_fract_y
 _atom_site_fract_z
 _atom_site_occupancy
  Mn  Mn0  1  0.001859  0.003843  0.998409  1
  Mn  Mn1  1  0.121695  0.628234  0.103640  1
  Mn  Mn2  1  0.628301  0.625876  0.019991  1
  Mn  Mn3  1  0.249282  0.251928  0.207810  1
  Mn  Mn4  1  0.002323  0.998855  0.166661  1
  Mn  Mn5  1  0.624225  0.625044  0.187615  1
  Mn  Mn6  1  0.247677  0.251145  0.375006  1
  Mn  Mn7  1  0.128305  0.621766  0.438027  1
  Mn  Mn8  1  0.000718  0.998072  0.333856  1
  Mn  Mn9  1  0.248141  0.246157  0.543258  1
  Mn  Mn10  1  0.625775  0.624956  0.354052  1
  Mn  Mn11  1  0.123887  0.623710  0.604782  1
  Mn  Mn12  1  0.250465  0.247010  0.709252  1
  Mn  Mn13  1  0.621699  0.624124  0.521675  1
  Mn  Mn14  1  0.999535  0.002990  0.832414  1
  Mn  Mn15  1  0.125000  0.625000  0.770833  1
  Mn  Mn16  1  0.001772  0.003751  0.665121  1
  Mn  Mn17  1  0.248228  0.246249  0.876546  1
  Mn  Mn18  1  0.126113  0.626290  0.936885  1
  Fe  Fe19  1  0.252737  0.245599  0.042678  1
  Fe  Fe20  1  0.628905  0.121588  0.104384  1
  Fe  Fe21  1  0.125000  0.625000  0.270833  1
  Fe  Fe22  1  0.628905  0.623206  0.104384  1
  Fe  Fe23  1  0.625000  0.125000  0.270833  1
  Fe  Fe24  1  0.625000  0.625000  0.270833  1
  Fe  Fe25  1  0.621095  0.128412  0.437283  1
  Fe  Fe26  1  0.621095  0.626794  0.437283  1
  Fe  Fe27  1  0.622332  0.128861  0.604096  1
  Fe  Fe28  1  0.622332  0.624233  0.604096  1
  Fe  Fe29  1  0.625416  0.625258  0.687344  1
  Fe  Fe30  1  0.625000  0.125000  0.770833  1
  Fe  Fe31  1  0.997263  0.004401  0.498989  1
  Fe  Fe32  1  0.625000  0.625000  0.770833  1
  Fe  Fe33  1  0.624584  0.624742  0.854323  1
  Fe  Fe34  1  0.627668  0.121139  0.937571  1
  Fe  Fe35  1  0.627668  0.625767  0.937571  1
  O  O36  1  0.387937  0.358393  0.065288  1
  O  O37  1  0.385803  0.394996  0.137367  1
  O  O38  1  0.387937  0.861947  0.065288  1
  O  O39  1  0.859448  0.375395  0.064961  1
  O  O40  1  0.380392  0.379162  0.233656  1
  O  O41  1  0.420805  0.851555  0.146015  1
  O  O42  1  0.865780  0.861311  0.068600  1
  O  O43  1  0.853555  0.408721  0.143467  1
  O  O44  1  0.392283  0.386528  0.305777  1
  O  O45  1  0.380392  0.838507  0.233656  1
  O  O46  1  0.831516  0.397692  0.228850  1
  O  O47  1  0.853555  0.876925  0.143467  1
  O  O48  1  0.396445  0.373075  0.398200  1
  O  O49  1  0.418484  0.852308  0.312816  1
  O  O50  1  0.869608  0.411493  0.308010  1
  O  O51  1  0.857717  0.863472  0.235890  1
  O  O52  1  0.396445  0.841279  0.398200  1
  O  O53  1  0.384220  0.388689  0.473067  1
  O  O54  1  0.869608  0.870838  0.308010  1
  O  O55  1  0.829195  0.398445  0.395652  1
  O  O56  1  0.366048  0.383974  0.569078  1
  O  O57  1  0.390552  0.874605  0.476706  1
  O  O58  1  0.862063  0.388053  0.476379  1
  O  O59  1  0.864197  0.855004  0.404299  1
  O  O60  1  0.366048  0.835511  0.569078  1
  O  O61  1  0.413028  0.370212  0.641091  1
  O  O62  1  0.838192  0.382671  0.566078  1
  O  O63  1  0.862063  0.891607  0.476379  1
  O  O64  1  0.379686  0.395030  0.732513  1
  O  O65  1  0.419550  0.858941  0.643762  1
  O  O66  1  0.846741  0.887387  0.563081  1
  O  O67  1  0.867648  0.423016  0.642138  1
  O  O68  1  0.413360  0.369971  0.807783  1
  O  O69  1  0.379686  0.830207  0.732513  1
  O  O70  1  0.835065  0.391048  0.730473  1
  O  O71  1  0.867648  0.856508  0.642138  1
  O  O72  1  0.382352  0.393492  0.899529  1
  O  O73  1  0.414935  0.858952  0.811193  1
  O  O74  1  0.836640  0.880029  0.733884  1
  O  O75  1  0.403259  0.362613  0.978586  1
  O  O76  1  0.870314  0.419793  0.809153  1
  O  O77  1  0.382352  0.826984  0.899529  1
  O  O78  1  0.830450  0.391059  0.897905  1
  O  O79  1  0.870314  0.854970  0.809153  1
  O  O80  1  0.411808  0.867329  0.975589  1
  O  O81  1  0.883952  0.414489  0.972589  1
  O  O82  1  0.836972  0.879788  0.900575  1
  O  O83  1  0.883952  0.866026  0.972589  1
