# generated using pymatgen
data_Ce3Zn11
_symmetry_space_group_name_H-M   'P 1'
_cell_length_a   4.46534853
_cell_length_b   8.27433505
_cell_length_c   8.27433505
_cell_angle_alpha   106.81488123
_cell_angle_beta   105.65422615
_cell_angle_gamma   105.65422615
_symmetry_Int_Tables_number   1
_chemical_formula_structural   Ce3Zn11
_chemical_formula_sum   'Ce3 Zn11'
_cell_volume   260.95077418
_cell_formula_units_Z   1
loop_
 _symmetry_equiv_pos_site_id
 _symmetry_equiv_pos_as_xyz
  1  'x, y, z'
loop_
 _atom_site_type_symbol
 _atom_site_label
 _atom_site_symmetry_multiplicity
 _atom_site_fract_x
 _atom_site_fract_y
 _atom_site_fract_z
 _atom_site_occupancy
  Ce  Ce0  1  0.000000  0.000000  0.000000  1
  Ce  Ce1  1  0.000001  0.704605  0.295395  1
  Ce  Ce2  1  0.000001  0.295395  0.704605  1
  Zn  Zn3  1  0.358795  0.702648  0.014941  1
  Zn  Zn4  1  0.282605  0.422703  0.142505  1
  Zn  Zn5  1  0.641207  0.985060  0.297352  1
  Zn  Zn6  1  0.817346  0.317346  0.317346  1
  Zn  Zn7  1  0.282605  0.142505  0.422703  1
  Zn  Zn8  1  0.500000  0.500000  0.500000  1
  Zn  Zn9  1  0.717396  0.857495  0.577297  1
  Zn  Zn10  1  0.182655  0.682654  0.682654  1
  Zn  Zn11  1  0.358795  0.014941  0.702648  1
  Zn  Zn12  1  0.717396  0.577297  0.857495  1
  Zn  Zn13  1  0.641207  0.297352  0.985060  1
