# generated using pymatgen
data_Mn2CuO4
_symmetry_space_group_name_H-M   'P 1'
_cell_length_a   6.02532180
_cell_length_b   6.02532189
_cell_length_c   29.90970953
_cell_angle_alpha   60.38922369
_cell_angle_beta   60.38922320
_cell_angle_gamma   59.72613331
_symmetry_Int_Tables_number   1
_chemical_formula_structural   Mn2CuO4
_chemical_formula_sum   'Mn20 Cu10 O40'
_cell_volume   770.67362892
_cell_formula_units_Z   10
loop_
 _symmetry_equiv_pos_site_id
 _symmetry_equiv_pos_as_xyz
  1  'x, y, z'
loop_
 _atom_site_type_symbol
 _atom_site_label
 _atom_site_symmetry_multiplicity
 _atom_site_fract_x
 _atom_site_fract_y
 _atom_site_fract_z
 _atom_site_occupancy
  Mn  Mn0  1  0.003941  0.003941  0.000268  1
  Mn  Mn1  1  0.003561  0.003561  0.200475  1
  Mn  Mn2  1  0.127226  0.624008  0.124816  1
  Mn  Mn3  1  0.624008  0.127226  0.124816  1
  Mn  Mn4  1  0.003371  0.003371  0.400605  1
  Mn  Mn5  1  0.624449  0.624449  0.025213  1
  Mn  Mn6  1  0.127366  0.624001  0.324837  1
  Mn  Mn7  1  0.624406  0.624406  0.225364  1
  Mn  Mn8  1  0.624001  0.127366  0.324837  1
  Mn  Mn9  1  0.004584  0.004584  0.599683  1
  Mn  Mn10  1  0.127601  0.623807  0.524858  1
  Mn  Mn11  1  0.623807  0.127601  0.524858  1
  Mn  Mn12  1  0.624301  0.624301  0.425488  1
  Mn  Mn13  1  0.125333  0.622050  0.725840  1
  Mn  Mn14  1  0.626786  0.626786  0.625715  1
  Mn  Mn15  1  0.622050  0.125333  0.725840  1
  Mn  Mn16  1  0.623002  0.623002  0.725656  1
  Mn  Mn17  1  0.126831  0.626968  0.924039  1
  Mn  Mn18  1  0.622129  0.622129  0.825280  1
  Mn  Mn19  1  0.626968  0.126831  0.924039  1
  Cu  Cu20  1  0.249245  0.249245  0.049036  1
  Cu  Cu21  1  0.248077  0.248077  0.249703  1
  Cu  Cu22  1  0.624462  0.624462  0.124797  1
  Cu  Cu23  1  0.248078  0.248078  0.449613  1
  Cu  Cu24  1  0.624592  0.624592  0.324878  1
  Cu  Cu25  1  0.251571  0.251571  0.649751  1
  Cu  Cu26  1  0.996856  0.996856  0.801096  1
  Cu  Cu27  1  0.624598  0.624598  0.525115  1
  Cu  Cu28  1  0.247433  0.247433  0.850291  1
  Cu  Cu29  1  0.626420  0.626420  0.923879  1
  O  O30  1  0.380464  0.380464  0.076549  1
  O  O31  1  0.380335  0.836589  0.076077  1
  O  O32  1  0.379516  0.379516  0.167386  1
  O  O33  1  0.836589  0.380335  0.076077  1
  O  O34  1  0.380644  0.380644  0.276653  1
  O  O35  1  0.416783  0.868670  0.173618  1
  O  O36  1  0.869433  0.869433  0.083128  1
  O  O37  1  0.868670  0.416783  0.173618  1
  O  O38  1  0.380099  0.380099  0.367311  1
  O  O39  1  0.380160  0.835776  0.276290  1
  O  O40  1  0.835776  0.380160  0.276290  1
  O  O41  1  0.867011  0.867011  0.173124  1
  O  O42  1  0.379890  0.379890  0.476908  1
  O  O43  1  0.416366  0.868406  0.373536  1
  O  O44  1  0.868406  0.416366  0.373536  1
  O  O45  1  0.380757  0.380757  0.567590  1
  O  O46  1  0.868660  0.868660  0.283224  1
  O  O47  1  0.379727  0.835996  0.476201  1
  O  O48  1  0.835996  0.379727  0.476201  1
  O  O49  1  0.867409  0.867409  0.372951  1
  O  O50  1  0.381085  0.381085  0.679419  1
  O  O51  1  0.415732  0.868631  0.574497  1
  O  O52  1  0.867050  0.867050  0.483386  1
  O  O53  1  0.868631  0.415732  0.574497  1
  O  O54  1  0.384178  0.384178  0.768858  1
  O  O55  1  0.393798  0.838996  0.677032  1
  O  O56  1  0.838996  0.393798  0.677032  1
  O  O57  1  0.870291  0.870291  0.571839  1
  O  O58  1  0.379749  0.379749  0.877648  1
  O  O59  1  0.408286  0.855480  0.773479  1
  O  O60  1  0.863436  0.863436  0.682718  1
  O  O61  1  0.379444  0.838206  0.875529  1
  O  O62  1  0.855480  0.408286  0.773479  1
  O  O63  1  0.382478  0.382478  0.966756  1
  O  O64  1  0.838206  0.379444  0.875529  1
  O  O65  1  0.866055  0.866055  0.771731  1
  O  O66  1  0.418473  0.869644  0.973084  1
  O  O67  1  0.870369  0.870369  0.881683  1
  O  O68  1  0.869644  0.418473  0.973084  1
  O  O69  1  0.868875  0.868875  0.971764  1
