# generated using pymatgen
data_Mn23FeO32
_symmetry_space_group_name_H-M   'P 1'
_cell_length_a   6.33246024
_cell_length_b   10.49754571
_cell_length_c   10.48612232
_cell_angle_alpha   74.10076248
_cell_angle_beta   94.26787732
_cell_angle_gamma   85.55833005
_symmetry_Int_Tables_number   1
_chemical_formula_structural   Mn23FeO32
_chemical_formula_sum   'Mn23 Fe1 O32'
_cell_volume   665.05542556
_cell_formula_units_Z   1
loop_
 _symmetry_equiv_pos_site_id
 _symmetry_equiv_pos_as_xyz
  1  'x, y, z'
loop_
 _atom_site_type_symbol
 _atom_site_label
 _atom_site_symmetry_multiplicity
 _atom_site_fract_x
 _atom_site_fract_y
 _atom_site_fract_z
 _atom_site_occupancy
  Mn  Mn0  1  0.996630  0.999736  0.999710  1
  Mn  Mn1  1  0.500202  0.125379  0.125698  1
  Mn  Mn2  1  0.500250  0.999965  0.500082  1
  Mn  Mn3  1  0.000031  0.062710  0.312767  1
  Mn  Mn4  1  0.750392  0.312493  0.312592  1
  Mn  Mn5  1  0.496241  0.061605  0.813822  1
  Mn  Mn6  1  0.000054  0.124523  0.625586  1
  Mn  Mn7  1  0.499798  0.499621  0.999302  1
  Mn  Mn8  1  0.500000  0.312500  0.562500  1
  Mn  Mn9  1  0.250200  0.312808  0.312442  1
  Mn  Mn10  1  0.000000  0.312500  0.062500  1
  Mn  Mn11  1  0.749800  0.312192  0.812558  1
  Mn  Mn12  1  0.503759  0.563395  0.311178  1
  Mn  Mn13  1  0.249608  0.312507  0.812408  1
  Mn  Mn14  1  0.751272  0.812645  0.312675  1
  Mn  Mn15  1  0.003370  0.625264  0.125290  1
  Mn  Mn16  1  0.499750  0.625035  0.624919  1
  Mn  Mn17  1  0.999946  0.500477  0.499414  1
  Mn  Mn18  1  0.747404  0.810591  0.813683  1
  Mn  Mn19  1  0.252596  0.814409  0.311317  1
  Mn  Mn20  1  0.999969  0.562290  0.812233  1
  Mn  Mn21  1  0.000000  0.812500  0.562500  1
  Mn  Mn22  1  0.248728  0.812355  0.812325  1
  Fe  Fe23  1  0.500000  0.812500  0.062500  1
  O  O24  1  0.772178  0.191758  0.197981  1
  O  O25  1  0.993468  0.191190  0.419853  1
  O  O26  1  0.493555  0.205547  0.433840  1
  O  O27  1  0.992652  0.204972  0.933927  1
  O  O28  1  0.228208  0.198241  0.191578  1
  O  O29  1  0.728123  0.197056  0.692190  1
  O  O30  1  0.728537  0.433493  0.427304  1
  O  O31  1  0.507471  0.434273  0.205238  1
  O  O32  1  0.271463  0.191507  0.697696  1
  O  O33  1  0.492529  0.190727  0.919762  1
  O  O34  1  0.007348  0.420028  0.191073  1
  O  O35  1  0.271877  0.427944  0.432810  1
  O  O36  1  0.771792  0.426759  0.933422  1
  O  O37  1  0.506445  0.419453  0.691160  1
  O  O38  1  0.995170  0.705667  0.433164  1
  O  O39  1  0.732946  0.696989  0.193502  1
  O  O40  1  0.771519  0.691399  0.697482  1
  O  O41  1  0.992194  0.690736  0.919500  1
  O  O42  1  0.006532  0.433810  0.705147  1
  O  O43  1  0.282750  0.697554  0.189906  1
  O  O44  1  0.227822  0.433242  0.927019  1
  O  O45  1  0.493044  0.691034  0.419007  1
  O  O46  1  0.772092  0.927306  0.433697  1
  O  O47  1  0.508142  0.920260  0.193562  1
  O  O48  1  0.491858  0.704740  0.931438  1
  O  O49  1  0.227908  0.697694  0.691303  1
  O  O50  1  0.228481  0.933601  0.427518  1
  O  O51  1  0.506956  0.933966  0.705993  1
  O  O52  1  0.007806  0.934264  0.205500  1
  O  O53  1  0.717250  0.927446  0.935094  1
  O  O54  1  0.004830  0.919333  0.691836  1
  O  O55  1  0.267054  0.928011  0.931498  1
