# generated using pymatgen
data_CeCrO3
_symmetry_space_group_name_H-M   'P 1'
_cell_length_a   5.71975709
_cell_length_b   7.80831484
_cell_length_c   5.48624633
_cell_angle_alpha   90.00032451
_cell_angle_beta   89.91016459
_cell_angle_gamma   90.00054938
_symmetry_Int_Tables_number   1
_chemical_formula_structural   CeCrO3
_chemical_formula_sum   'Ce4 Cr4 O12'
_cell_volume   245.02458962
_cell_formula_units_Z   4
loop_
 _symmetry_equiv_pos_site_id
 _symmetry_equiv_pos_as_xyz
  1  'x, y, z'
loop_
 _atom_site_type_symbol
 _atom_site_label
 _atom_site_symmetry_multiplicity
 _atom_site_fract_x
 _atom_site_fract_y
 _atom_site_fract_z
 _atom_site_occupancy
  Ce  Ce0  1  0.059278  0.250003  0.985183  1
  Ce  Ce1  1  0.440730  0.750006  0.485364  1
  Ce  Ce2  1  0.559296  0.249995  0.514640  1
  Ce  Ce3  1  0.940685  0.749978  0.014663  1
  Cr  Cr4  1  -0.000052  0.000016  0.499985  1
  Cr  Cr5  1  -0.000056  0.500010  0.499966  1
  Cr  Cr6  1  0.500001  0.999919  0.000024  1
  Cr  Cr7  1  0.499991  0.500067  0.000052  1
  O  O8  1  0.029074  0.749951  0.597799  1
  O  O9  1  0.200883  0.550781  0.198783  1
  O  O10  1  0.200904  0.949241  0.198732  1
  O  O11  1  0.299177  0.449394  0.698717  1
  O  O12  1  0.299229  0.050645  0.698697  1
  O  O13  1  0.471031  0.250009  0.097740  1
  O  O14  1  0.528842  0.750001  0.901969  1
  O  O15  1  0.700676  0.949275  0.301262  1
  O  O16  1  0.700735  0.550700  0.301327  1
  O  O17  1  0.799269  0.050551  0.801512  1
  O  O18  1  0.799264  0.449410  0.801502  1
  O  O19  1  0.971043  0.250047  0.402083  1
