# generated using pymatgen
data_Mn2CuO4
_symmetry_space_group_name_H-M   'P 1'
_cell_length_a   6.13410915
_cell_length_b   6.13410901
_cell_length_c   35.58586015
_cell_angle_alpha   60.70158479
_cell_angle_beta   60.70158551
_cell_angle_gamma   58.20522358
_symmetry_Int_Tables_number   1
_chemical_formula_structural   Mn2CuO4
_chemical_formula_sum   'Mn24 Cu12 O48'
_cell_volume   942.83152143
_cell_formula_units_Z   12
loop_
 _symmetry_equiv_pos_site_id
 _symmetry_equiv_pos_as_xyz
  1  'x, y, z'
loop_
 _atom_site_type_symbol
 _atom_site_label
 _atom_site_symmetry_multiplicity
 _atom_site_fract_x
 _atom_site_fract_y
 _atom_site_fract_z
 _atom_site_occupancy
  Mn  Mn0  1  0.005512  0.005512  0.999495  1
  Mn  Mn1  1  0.126565  0.623790  0.104297  1
  Mn  Mn2  1  0.623790  0.126565  0.104297  1
  Mn  Mn3  1  0.623014  0.623014  0.021704  1
  Mn  Mn4  1  0.127169  0.627719  0.270398  1
  Mn  Mn5  1  0.625340  0.625340  0.187931  1
  Mn  Mn6  1  0.234999  0.234999  0.377686  1
  Mn  Mn7  1  0.008658  0.008658  0.165218  1
  Mn  Mn8  1  0.627719  0.127169  0.270398  1
  Mn  Mn9  1  0.125332  0.625089  0.437320  1
  Mn  Mn10  1  0.017160  0.017160  0.330031  1
  Mn  Mn11  1  0.625089  0.125332  0.437320  1
  Mn  Mn12  1  0.234731  0.234731  0.544578  1
  Mn  Mn13  1  0.125023  0.625015  0.604155  1
  Mn  Mn14  1  0.234620  0.234620  0.711318  1
  Mn  Mn15  1  0.625015  0.125023  0.604155  1
  Mn  Mn16  1  0.015447  0.015447  0.496963  1
  Mn  Mn17  1  0.124817  0.625594  0.770728  1
  Mn  Mn18  1  0.015533  0.015533  0.663621  1
  Mn  Mn19  1  0.625594  0.124817  0.770728  1
  Mn  Mn20  1  0.234679  0.234679  0.876921  1
  Mn  Mn21  1  0.123859  0.620640  0.937901  1
  Mn  Mn22  1  0.014332  0.014332  0.830882  1
  Mn  Mn23  1  0.620640  0.123859  0.937901  1
  Cu  Cu24  1  0.244752  0.244752  0.041992  1
  Cu  Cu25  1  0.244755  0.244755  0.209007  1
  Cu  Cu26  1  0.625773  0.625773  0.104212  1
  Cu  Cu27  1  0.625772  0.625772  0.270924  1
  Cu  Cu28  1  0.626942  0.626942  0.353650  1
  Cu  Cu29  1  0.625050  0.625050  0.437421  1
  Cu  Cu30  1  0.625175  0.625175  0.520779  1
  Cu  Cu31  1  0.625056  0.625056  0.604157  1
  Cu  Cu32  1  0.625058  0.625058  0.687496  1
  Cu  Cu33  1  0.625405  0.625405  0.770799  1
  Cu  Cu34  1  0.624041  0.624041  0.854502  1
  Cu  Cu35  1  0.625159  0.625159  0.937271  1
  O  O36  1  0.380415  0.380415  0.064294  1
  O  O37  1  0.373911  0.373911  0.140987  1
  O  O38  1  0.371823  0.832324  0.065237  1
  O  O39  1  0.382297  0.382297  0.231148  1
  O  O40  1  0.419700  0.876292  0.143556  1
  O  O41  1  0.832324  0.371823  0.065237  1
  O  O42  1  0.874568  0.874568  0.068279  1
  O  O43  1  0.876292  0.419700  0.143556  1
  O  O44  1  0.369501  0.369501  0.308567  1
  O  O45  1  0.375425  0.830747  0.231827  1
  O  O46  1  0.830747  0.375425  0.231827  1
  O  O47  1  0.868409  0.868409  0.143777  1
  O  O48  1  0.367109  0.367109  0.401784  1
  O  O49  1  0.425171  0.883101  0.307523  1
  O  O50  1  0.883101  0.425171  0.307523  1
  O  O51  1  0.880329  0.880329  0.233702  1
  O  O52  1  0.365556  0.365556  0.475912  1
  O  O53  1  0.372720  0.824632  0.400144  1
  O  O54  1  0.367479  0.367479  0.568421  1
  O  O55  1  0.824632  0.372720  0.400144  1
  O  O56  1  0.887019  0.887019  0.305854  1
  O  O57  1  0.425601  0.877900  0.474538  1
  O  O58  1  0.877900  0.425601  0.474538  1
  O  O59  1  0.365344  0.365344  0.642640  1
  O  O60  1  0.884848  0.884848  0.398795  1
  O  O61  1  0.372298  0.824685  0.567029  1
  O  O62  1  0.824685  0.372298  0.567029  1
  O  O63  1  0.882973  0.882973  0.472994  1
  O  O64  1  0.367340  0.367340  0.735114  1
  O  O65  1  0.425400  0.877763  0.641287  1
  O  O66  1  0.877763  0.425400  0.641287  1
  O  O67  1  0.884723  0.884723  0.565658  1
  O  O68  1  0.367387  0.367387  0.808820  1
  O  O69  1  0.372414  0.824965  0.733605  1
  O  O70  1  0.824965  0.372414  0.733605  1
  O  O71  1  0.882510  0.882510  0.639899  1
  O  O72  1  0.425150  0.877822  0.808192  1
  O  O73  1  0.361009  0.361009  0.902302  1
  O  O74  1  0.884072  0.884072  0.732281  1
  O  O75  1  0.877822  0.425150  0.808192  1
  O  O76  1  0.369778  0.369778  0.974700  1
  O  O77  1  0.366782  0.826680  0.900685  1
  O  O78  1  0.826680  0.366782  0.900685  1
  O  O79  1  0.883400  0.883400  0.806329  1
  O  O80  1  0.419272  0.870575  0.977275  1
  O  O81  1  0.879117  0.879117  0.900045  1
  O  O82  1  0.870575  0.419272  0.977275  1
  O  O83  1  0.864088  0.864088  0.977745  1
