# generated using pymatgen
data_Mn27Nb13O60
_symmetry_space_group_name_H-M   'P 1'
_cell_length_a   5.72062667
_cell_length_b   5.70424162
_cell_length_c   56.89407152
_cell_angle_alpha   55.91149186
_cell_angle_beta   55.85153390
_cell_angle_gamma   56.15992201
_symmetry_Int_Tables_number   1
_chemical_formula_structural   Mn27Nb13O60
_chemical_formula_sum   'Mn27 Nb13 O60'
_cell_volume   1190.31393324
_cell_formula_units_Z   1
loop_
 _symmetry_equiv_pos_site_id
 _symmetry_equiv_pos_as_xyz
  1  'x, y, z'
loop_
 _atom_site_type_symbol
 _atom_site_label
 _atom_site_symmetry_multiplicity
 _atom_site_fract_x
 _atom_site_fract_y
 _atom_site_fract_z
 _atom_site_occupancy
  Mn  Mn0  1  0.283029  0.281717  0.027673  1
  Mn  Mn1  1  0.282662  0.286454  0.128094  1
  Mn  Mn2  1  0.784866  0.778924  0.077902  1
  Mn  Mn3  1  0.283137  0.284358  0.228559  1
  Mn  Mn4  1  0.786042  0.784650  0.178274  1
  Mn  Mn5  1  0.280696  0.289408  0.328465  1
  Mn  Mn6  1  0.783062  0.783814  0.278477  1
  Mn  Mn7  1  0.269231  0.275263  0.431532  1
  Mn  Mn8  1  0.483882  0.491580  0.454273  1
  Mn  Mn9  1  0.785045  0.770654  0.379677  1
  Mn  Mn10  1  0.283991  0.284207  0.531305  1
  Mn  Mn11  1  0.495455  0.497589  0.552872  1
  Mn  Mn12  1  0.784002  0.773155  0.481882  1
  Mn  Mn13  1  0.276154  0.286631  0.632013  1
  Mn  Mn14  1  0.493086  0.495620  0.651808  1
  Mn  Mn15  1  0.784917  0.782485  0.580709  1
  Mn  Mn16  1  -0.001101  0.985621  0.699690  1
  Mn  Mn17  1  0.313901  0.300510  0.728069  1
  Mn  Mn18  1  0.512623  0.511209  0.747960  1
  Mn  Mn19  1  0.799791  0.780347  0.680251  1
  Mn  Mn20  1  0.293313  0.292800  0.826092  1
  Mn  Mn21  1  0.507966  0.507820  0.848361  1
  Mn  Mn22  1  0.800117  0.808446  0.776434  1
  Mn  Mn23  1  0.303604  0.298703  0.923958  1
  Mn  Mn24  1  0.518377  0.506861  0.946845  1
  Mn  Mn25  1  0.791482  0.794323  0.877491  1
  Mn  Mn26  1  0.786005  0.809027  0.974477  1
  Nb  Nb27  1  0.001202  0.024338  0.995717  1
  Nb  Nb28  1  0.505608  0.496282  0.048105  1
  Nb  Nb29  1  0.495251  0.493203  0.149423  1
  Nb  Nb30  1  0.993232  0.995507  0.099176  1
  Nb  Nb31  1  0.494036  0.493331  0.249800  1
  Nb  Nb32  1  0.991960  0.993714  0.300018  1
  Nb  Nb33  1  0.994522  0.994206  0.199582  1
  Nb  Nb34  1  0.493307  0.491372  0.350910  1
  Nb  Nb35  1  -0.007430  0.977021  0.403546  1
  Nb  Nb36  1  0.990015  0.985267  0.502521  1
  Nb  Nb37  1  0.984979  -0.005612  0.602064  1
  Nb  Nb38  1  0.010355  0.003618  0.798655  1
  Nb  Nb39  1  0.010030  0.006825  0.896998  1
  O  O40  1  0.117274  0.359949  0.072795  1
  O  O41  1  0.356319  0.717821  0.012991  1
  O  O42  1  0.712993  0.114907  0.037545  1
  O  O43  1  0.225152  0.852759  0.062292  1
  O  O44  1  0.614464  0.220739  0.086163  1
  O  O45  1  0.115306  0.364057  0.172380  1
  O  O46  1  0.860034  0.601369  0.024804  1
  O  O47  1  0.362966  0.721181  0.111683  1
  O  O48  1  0.719675  0.119592  0.136322  1
  O  O49  1  0.219643  0.867538  0.161378  1
  O  O50  1  0.616312  0.219422  0.186680  1
  O  O51  1  0.117582  0.363835  0.272532  1
  O  O52  1  0.861834  0.618275  0.122471  1
  O  O53  1  0.365746  0.721644  0.211436  1
  O  O54  1  0.719540  0.117204  0.236552  1
  O  O55  1  0.218688  0.865993  0.261739  1
  O  O56  1  0.620503  0.220721  0.286447  1
  O  O57  1  0.119470  0.358138  0.371262  1
  O  O58  1  0.864809  0.615101  0.222346  1
  O  O59  1  0.370471  0.712191  0.311108  1
  O  O60  1  0.725024  0.119796  0.336705  1
  O  O61  1  0.228838  0.867876  0.358962  1
  O  O62  1  0.614182  0.233868  0.385850  1
  O  O63  1  0.091611  0.360130  0.472224  1
  O  O64  1  0.855635  0.617706  0.322602  1
  O  O65  1  0.365202  0.736311  0.409217  1
  O  O66  1  0.727061  0.104393  0.436314  1
  O  O67  1  0.183741  0.891665  0.461843  1
  O  O68  1  0.596242  0.184828  0.492403  1
  O  O69  1  0.092631  0.359251  0.571917  1
  O  O70  1  0.883461  0.636846  0.418036  1
  O  O71  1  0.365562  0.702094  0.510558  1
  O  O72  1  0.725815  0.092708  0.538061  1
  O  O73  1  0.179203  0.912173  0.560557  1
  O  O74  1  0.579533  0.192318  0.593761  1
  O  O75  1  0.097744  0.372134  0.670575  1
  O  O76  1  0.889241  0.611256  0.521121  1
  O  O77  1  0.360591  0.709930  0.610403  1
  O  O78  1  0.724386  0.094507  0.637915  1
  O  O79  1  0.198280  0.894241  0.661242  1
  O  O80  1  0.608613  0.176141  0.690716  1
  O  O81  1  0.095409  0.379107  0.770782  1
  O  O82  1  0.887341  0.609885  0.619745  1
  O  O83  1  0.392631  0.690719  0.710373  1
  O  O84  1  0.705019  0.103867  0.736856  1
  O  O85  1  0.210916  0.918076  0.757083  1
  O  O86  1  0.613905  0.207265  0.786097  1
  O  O87  1  0.100240  0.374721  0.871614  1
  O  O88  1  0.923678  0.594748  0.720166  1
  O  O89  1  0.369668  0.733180  0.808003  1
  O  O90  1  0.722504  0.100693  0.834747  1
  O  O91  1  0.206949  0.895943  0.860328  1
  O  O92  1  0.632070  0.193733  0.886691  1
  O  O93  1  0.094273  0.371659  0.975514  1
  O  O94  1  0.901707  0.626556  0.815655  1
  O  O95  1  0.359528  0.731425  0.909981  1
  O  O96  1  0.710320  0.109219  0.935713  1
  O  O97  1  0.202035  0.880582  0.963520  1
  O  O98  1  0.623166  0.190411  0.989625  1
  O  O99  1  0.895860  0.615360  0.920041  1
