# generated using pymatgen
data_CeCu6
_symmetry_space_group_name_H-M   'P 1'
_cell_length_a   5.02701110
_cell_length_b   8.06466105
_cell_length_c   10.10434051
_cell_angle_alpha   90.00000000
_cell_angle_beta   90.00000000
_cell_angle_gamma   90.98582418
_symmetry_Int_Tables_number   1
_chemical_formula_structural   CeCu6
_chemical_formula_sum   'Ce4 Cu24'
_cell_volume   409.58085482
_cell_formula_units_Z   4
loop_
 _symmetry_equiv_pos_site_id
 _symmetry_equiv_pos_as_xyz
  1  'x, y, z'
loop_
 _atom_site_type_symbol
 _atom_site_label
 _atom_site_symmetry_multiplicity
 _atom_site_fract_x
 _atom_site_fract_y
 _atom_site_fract_z
 _atom_site_occupancy
  Ce  Ce0  1  0.256762  0.259325  0.435250  1
  Ce  Ce1  1  0.256762  0.759325  0.064750  1
  Ce  Ce2  1  0.743238  0.240675  0.935250  1
  Ce  Ce3  1  0.743238  0.740675  0.564750  1
  Cu  Cu4  1  0.248004  0.146428  0.143484  1
  Cu  Cu5  1  0.751996  0.353572  0.643484  1
  Cu  Cu6  1  0.767477  0.438497  0.405641  1
  Cu  Cu7  1  0.249005  0.317311  0.743703  1
  Cu  Cu8  1  0.503253  0.565751  0.806732  1
  Cu  Cu9  1  0.749818  0.100359  0.484194  1
  Cu  Cu10  1  0.250182  0.899641  0.515806  1
  Cu  Cu11  1  0.496747  0.934249  0.306732  1
  Cu  Cu12  1  0.503253  0.065751  0.693268  1
  Cu  Cu13  1  0.250182  0.399641  0.984194  1
  Cu  Cu14  1  0.992844  0.562781  0.809777  1
  Cu  Cu15  1  0.751996  0.853572  0.856516  1
  Cu  Cu16  1  0.767477  0.938497  0.094359  1
  Cu  Cu17  1  0.232523  0.061503  0.905641  1
  Cu  Cu18  1  0.248004  0.646428  0.356516  1
  Cu  Cu19  1  0.749818  0.600359  0.015806  1
  Cu  Cu20  1  0.750995  0.682689  0.256297  1
  Cu  Cu21  1  0.496747  0.434249  0.193268  1
  Cu  Cu22  1  0.007156  0.437219  0.190223  1
  Cu  Cu23  1  0.249005  0.817311  0.756297  1
  Cu  Cu24  1  0.232523  0.561503  0.594359  1
  Cu  Cu25  1  0.992844  0.062781  0.690223  1
  Cu  Cu26  1  0.007156  0.937219  0.309777  1
  Cu  Cu27  1  0.750995  0.182689  0.243703  1
