# generated using pymatgen
data_MnMoO4
_symmetry_space_group_name_H-M   'P 1'
_cell_length_a   4.86462970
_cell_length_b   5.05931502
_cell_length_c   5.85538486
_cell_angle_alpha   90.00000000
_cell_angle_beta   90.00000000
_cell_angle_gamma   90.97680421
_symmetry_Int_Tables_number   1
_chemical_formula_structural   MnMoO4
_chemical_formula_sum   'Mn2 Mo2 O8'
_cell_volume   144.08999866
_cell_formula_units_Z   2
loop_
 _symmetry_equiv_pos_site_id
 _symmetry_equiv_pos_as_xyz
  1  'x, y, z'
loop_
 _atom_site_type_symbol
 _atom_site_label
 _atom_site_symmetry_multiplicity
 _atom_site_fract_x
 _atom_site_fract_y
 _atom_site_fract_z
 _atom_site_occupancy
  O  O0  1  0.711972  0.442508  0.395639  1
  O  O1  1  0.288028  0.057492  0.395639  1
  O  O2  1  0.288028  0.557492  0.604361  1
  O  O3  1  0.711972  0.942508  0.604361  1
  O  O4  1  0.752756  0.395540  0.873790  1
  O  O5  1  0.247244  0.104460  0.873790  1
  O  O6  1  0.247244  0.604460  0.126210  1
  O  O7  1  0.752756  0.895540  0.126210  1
  Mn  Mn8  1  0.000000  0.250000  0.182892  1
  Mn  Mn9  1  0.000000  0.750000  0.817108  1
  Mo  Mo10  1  0.500000  0.750000  0.319220  1
  Mo  Mo11  1  0.500000  0.250000  0.680780  1
