# generated using pymatgen
data_CeCu
_symmetry_space_group_name_H-M   'P 1'
_cell_length_a   4.19966164
_cell_length_b   6.14862588
_cell_length_c   7.04431744
_cell_angle_alpha   90.00348231
_cell_angle_beta   89.99965400
_cell_angle_gamma   89.99931946
_symmetry_Int_Tables_number   1
_chemical_formula_structural   CeCu
_chemical_formula_sum   'Ce4 Cu4'
_cell_volume   181.89940906
_cell_formula_units_Z   4
loop_
 _symmetry_equiv_pos_site_id
 _symmetry_equiv_pos_as_xyz
  1  'x, y, z'
loop_
 _atom_site_type_symbol
 _atom_site_label
 _atom_site_symmetry_multiplicity
 _atom_site_fract_x
 _atom_site_fract_y
 _atom_site_fract_z
 _atom_site_occupancy
  Ce  Ce0  1  0.750004  0.853696  0.832474  1
  Ce  Ce1  1  0.249999  0.353703  0.667516  1
  Ce  Ce2  1  0.249998  0.146305  0.167520  1
  Ce  Ce3  1  0.750005  0.646298  0.332486  1
  Cu  Cu4  1  0.250000  0.605048  0.040651  1
  Cu  Cu5  1  0.749999  0.394947  0.959353  1
  Cu  Cu6  1  0.250000  0.894952  0.540649  1
  Cu  Cu7  1  0.749996  0.105052  0.459351  1
