# generated using pymatgen
data_MnNb3O6
_symmetry_space_group_name_H-M   'P 1'
_cell_length_a   6.62356617
_cell_length_b   7.09530748
_cell_length_c   7.09530717
_cell_angle_alpha   60.66504447
_cell_angle_beta   62.17602226
_cell_angle_gamma   62.17602099
_symmetry_Int_Tables_number   1
_chemical_formula_structural   MnNb3O6
_chemical_formula_sum   'Mn2 Nb6 O12'
_cell_volume   244.52057012
_cell_formula_units_Z   2
loop_
 _symmetry_equiv_pos_site_id
 _symmetry_equiv_pos_as_xyz
  1  'x, y, z'
loop_
 _atom_site_type_symbol
 _atom_site_label
 _atom_site_symmetry_multiplicity
 _atom_site_fract_x
 _atom_site_fract_y
 _atom_site_fract_z
 _atom_site_occupancy
  Mn  Mn0  1  0.252155  0.000000  0.000000  1
  Mn  Mn1  1  0.747845  0.000000  0.000000  1
  Nb  Nb2  1  0.198778  0.500000  0.500000  1
  Nb  Nb3  1  0.801222  0.500000  0.500000  1
  Nb  Nb4  1  0.222321  0.056856  0.498503  1
  Nb  Nb5  1  0.777679  0.943144  0.501497  1
  Nb  Nb6  1  0.777679  0.501497  0.943144  1
  Nb  Nb7  1  0.222321  0.498503  0.056856  1
  O  O8  1  0.855475  0.144525  0.144525  1
  O  O9  1  0.144525  0.855475  0.855475  1
  O  O10  1  0.350517  0.149483  0.149483  1
  O  O11  1  0.649483  0.850517  0.850517  1
  O  O12  1  0.411213  0.560971  0.170194  1
  O  O13  1  0.142378  0.439029  0.829806  1
  O  O14  1  0.588787  0.829806  0.439029  1
  O  O15  1  0.857622  0.170194  0.560971  1
  O  O16  1  0.588787  0.439029  0.829806  1
  O  O17  1  0.857622  0.560971  0.170194  1
  O  O18  1  0.411213  0.170194  0.560971  1
  O  O19  1  0.142378  0.829806  0.439029  1
