# generated using pymatgen
data_Mn(Ni9O10)2
_symmetry_space_group_name_H-M   'P 1'
_cell_length_a   5.95305851
_cell_length_b   5.95305851
_cell_length_c   21.39607257
_cell_angle_alpha   97.99667789
_cell_angle_beta   97.99667789
_cell_angle_gamma   90.00000000
_symmetry_Int_Tables_number   1
_chemical_formula_structural   Mn(Ni9O10)2
_chemical_formula_sum   'Mn2 Ni36 O40'
_cell_volume   743.43397023
_cell_formula_units_Z   2
loop_
 _symmetry_equiv_pos_site_id
 _symmetry_equiv_pos_as_xyz
  1  'x, y, z'
loop_
 _atom_site_type_symbol
 _atom_site_label
 _atom_site_symmetry_multiplicity
 _atom_site_fract_x
 _atom_site_fract_y
 _atom_site_fract_z
 _atom_site_occupancy
  Mn  Mn0  1  0.599682  0.599682  0.199364  1
  Mn  Mn1  1  0.200318  0.200318  0.400636  1
  Ni  Ni2  1  0.999598  0.999598  0.999195  1
  Ni  Ni3  1  0.500357  0.000357  0.000714  1
  Ni  Ni4  1  0.499988  0.499988  -0.000023  1
  Ni  Ni5  1  0.000357  0.500357  0.000714  1
  Ni  Ni6  1  0.807402  0.807402  0.101142  1
  Ni  Ni7  1  0.293739  0.807402  0.101142  1
  Ni  Ni8  1  0.293739  0.293739  0.101142  1
  Ni  Ni9  1  0.807402  0.293739  0.101142  1
  Ni  Ni10  1  0.100113  0.600113  0.200227  1
  Ni  Ni11  1  0.600113  0.100113  0.200227  1
  Ni  Ni12  1  0.900000  0.400000  0.300000  1
  Ni  Ni13  1  0.400000  0.400000  0.300000  1
  Ni  Ni14  1  0.900000  0.900000  0.300000  1
  Ni  Ni15  1  0.400000  0.900000  0.300000  1
  Ni  Ni16  1  0.699887  0.199887  0.399773  1
  Ni  Ni17  1  0.199887  0.699887  0.399773  1
  Ni  Ni18  1  0.992598  0.992598  0.498858  1
  Ni  Ni19  1  0.506261  0.506261  0.498858  1
  Ni  Ni20  1  0.992598  0.506261  0.498858  1
  Ni  Ni21  1  0.506261  0.992598  0.498858  1
  Ni  Ni22  1  0.299643  0.799643  0.599286  1
  Ni  Ni23  1  0.800402  0.800402  0.600805  1
  Ni  Ni24  1  0.300012  0.300012  0.600023  1
  Ni  Ni25  1  0.799643  0.299643  0.599286  1
  Ni  Ni26  1  0.100094  0.599741  0.699836  1
  Ni  Ni27  1  0.599741  0.599741  0.699836  1
  Ni  Ni28  1  0.599741  0.100094  0.699836  1
  Ni  Ni29  1  0.100094  0.100094  0.699836  1
  Ni  Ni30  1  0.900000  0.400000  0.800000  1
  Ni  Ni31  1  0.400000  0.400000  0.800000  1
  Ni  Ni32  1  0.400000  0.900000  0.800000  1
  Ni  Ni33  1  0.900000  0.900000  0.800000  1
  Ni  Ni34  1  0.200259  0.200259  0.900164  1
  Ni  Ni35  1  0.699906  0.699906  0.900164  1
  Ni  Ni36  1  0.200259  0.699906  0.900164  1
  Ni  Ni37  1  0.699906  0.200259  0.900164  1
  O  O38  1  0.252483  0.252483  0.000484  1
  O  O39  1  0.748001  0.252483  0.000484  1
  O  O40  1  0.748001  0.748001  0.000484  1
  O  O41  1  0.252483  0.748001  0.000484  1
  O  O42  1  0.047319  0.047319  0.094638  1
  O  O43  1  0.050690  0.550690  0.101379  1
  O  O44  1  0.550690  0.050690  0.101379  1
  O  O45  1  0.552531  0.552531  0.105062  1
  O  O46  1  0.371791  0.828573  0.200364  1
  O  O47  1  0.828573  0.371791  0.200364  1
  O  O48  1  0.371791  0.371791  0.200364  1
  O  O49  1  0.828573  0.828573  0.200364  1
  O  O50  1  0.645322  0.645322  0.290644  1
  O  O51  1  0.150000  0.650000  0.300000  1
  O  O52  1  0.650000  0.150000  0.300000  1
  O  O53  1  0.154678  0.154678  0.309356  1
  O  O54  1  0.971427  0.428209  0.399636  1
  O  O55  1  0.428209  0.428209  0.399636  1
  O  O56  1  0.428209  0.971427  0.399636  1
  O  O57  1  0.971427  0.971427  0.399636  1
  O  O58  1  0.247469  0.247469  0.494938  1
  O  O59  1  0.749310  0.249310  0.498621  1
  O  O60  1  0.249310  0.749310  0.498621  1
  O  O61  1  0.752681  0.752681  0.505362  1
  O  O62  1  0.547517  0.547517  0.599516  1
  O  O63  1  0.051999  0.547517  0.599516  1
  O  O64  1  0.051999  0.051999  0.599516  1
  O  O65  1  0.547517  0.051999  0.599516  1
  O  O66  1  0.849922  0.849922  0.699844  1
  O  O67  1  0.849791  0.349791  0.699581  1
  O  O68  1  0.349791  0.849791  0.699581  1
  O  O69  1  0.350003  0.350003  0.700006  1
  O  O70  1  0.650161  0.149839  0.800000  1
  O  O71  1  0.149839  0.149839  0.800000  1
  O  O72  1  0.650161  0.650161  0.800000  1
  O  O73  1  0.149839  0.650161  0.800000  1
  O  O74  1  0.449997  0.449997  0.899994  1
  O  O75  1  0.950209  0.450209  0.900419  1
  O  O76  1  0.450209  0.950209  0.900419  1
  O  O77  1  0.950078  0.950078  0.900156  1
