# generated using pymatgen
data_MnReO4
_symmetry_space_group_name_H-M   'P 1'
_cell_length_a   4.81116737
_cell_length_b   5.15467418
_cell_length_c   5.75614062
_cell_angle_alpha   90.00000000
_cell_angle_beta   90.00000000
_cell_angle_gamma   92.71761499
_symmetry_Int_Tables_number   1
_chemical_formula_structural   MnReO4
_chemical_formula_sum   'Mn2 Re2 O8'
_cell_volume   142.59174159
_cell_formula_units_Z   2
loop_
 _symmetry_equiv_pos_site_id
 _symmetry_equiv_pos_as_xyz
  1  'x, y, z'
loop_
 _atom_site_type_symbol
 _atom_site_label
 _atom_site_symmetry_multiplicity
 _atom_site_fract_x
 _atom_site_fract_y
 _atom_site_fract_z
 _atom_site_occupancy
  O  O0  1  0.740749  0.111491  0.370739  1
  O  O1  1  0.259251  0.388510  0.370739  1
  O  O2  1  0.259251  0.888510  0.629262  1
  O  O3  1  0.740749  0.611491  0.629262  1
  O  O4  1  0.792940  0.058409  0.896422  1
  O  O5  1  0.207058  0.441592  0.896422  1
  O  O6  1  0.792942  0.558407  0.103577  1
  O  O7  1  0.207058  0.941592  0.103577  1
  Mn  Mn8  1  0.499999  0.250000  0.673114  1
  Mn  Mn9  1  0.499999  0.750001  0.326885  1
  Re  Re10  1  1.000000  0.250000  0.167160  1
  Re  Re11  1  1.000000  0.750001  0.832841  1
