# generated using pymatgen
data_MnZn3
_symmetry_space_group_name_H-M   'P 1'
_cell_length_a   5.47261785
_cell_length_b   5.47265243
_cell_length_c   4.35060704
_cell_angle_alpha   89.99300016
_cell_angle_beta   90.00649673
_cell_angle_gamma   119.99960309
_symmetry_Int_Tables_number   1
_chemical_formula_structural   MnZn3
_chemical_formula_sum   'Mn2 Zn6'
_cell_volume   112.84315289
_cell_formula_units_Z   2
loop_
 _symmetry_equiv_pos_site_id
 _symmetry_equiv_pos_as_xyz
  1  'x, y, z'
loop_
 _atom_site_type_symbol
 _atom_site_label
 _atom_site_symmetry_multiplicity
 _atom_site_fract_x
 _atom_site_fract_y
 _atom_site_fract_z
 _atom_site_occupancy
  Mn  Mn0  1  0.666675  0.333345  0.249997  1
  Mn  Mn1  1  0.333330  0.666657  0.750012  1
  Zn  Zn2  1  0.831617  0.168383  0.750011  1
  Zn  Zn3  1  0.336759  0.168383  0.749990  1
  Zn  Zn4  1  0.831619  0.663239  0.749992  1
  Zn  Zn5  1  0.168378  0.831622  0.249985  1
  Zn  Zn6  1  0.663244  0.831617  0.250004  1
  Zn  Zn7  1  0.168381  0.336752  0.250008  1
