# generated using pymatgen
data_Mn3(AgO2)4
_symmetry_space_group_name_H-M   'P 1'
_cell_length_a   12.82725998
_cell_length_b   12.82725972
_cell_length_c   15.73718356
_cell_angle_alpha   90.00000000
_cell_angle_beta   90.00000000
_cell_angle_gamma   120.00000068
_symmetry_Int_Tables_number   1
_chemical_formula_structural   Mn3(AgO2)4
_chemical_formula_sum   'Mn36 Ag48 O96'
_cell_volume   2242.46371414
_cell_formula_units_Z   12
loop_
 _symmetry_equiv_pos_site_id
 _symmetry_equiv_pos_as_xyz
  1  'x, y, z'
loop_
 _atom_site_type_symbol
 _atom_site_label
 _atom_site_symmetry_multiplicity
 _atom_site_fract_x
 _atom_site_fract_y
 _atom_site_fract_z
 _atom_site_occupancy
  Mn  Mn0  1  0.041873  0.705813  0.833313  1
  Mn  Mn1  1  0.431774  0.946277  0.530836  1
  Mn  Mn2  1  0.121685  0.667917  0.999831  1
  Mn  Mn3  1  0.336060  0.294187  0.833354  1
  Mn  Mn4  1  0.705813  0.041873  0.166687  1
  Mn  Mn5  1  0.546233  0.878315  0.666498  1
  Mn  Mn6  1  0.236844  0.847927  0.138003  1
  Mn  Mn7  1  0.294187  0.336060  0.166646  1
  Mn  Mn8  1  0.332083  0.453767  0.333165  1
  Mn  Mn9  1  0.630101  0.000000  0.833333  1
  Mn  Mn10  1  0.847927  0.236844  0.861997  1
  Mn  Mn11  1  0.100247  0.281314  0.863496  1
  Mn  Mn12  1  0.000000  0.790626  0.666667  1
  Mn  Mn13  1  0.453767  0.332083  0.666835  1
  Mn  Mn14  1  0.369899  0.369899  0.500000  1
  Mn  Mn15  1  0.053723  0.485497  0.864170  1
  Mn  Mn16  1  0.568226  0.514503  0.802497  1
  Mn  Mn17  1  0.667917  0.121685  0.000169  1
  Mn  Mn18  1  0.181067  0.899753  0.530162  1
  Mn  Mn19  1  0.514503  0.568226  0.197503  1
  Mn  Mn20  1  0.958127  0.663940  0.500020  1
  Mn  Mn21  1  0.790626  0.000000  0.333333  1
  Mn  Mn22  1  0.878315  0.546233  0.333502  1
  Mn  Mn23  1  0.899753  0.181067  0.469838  1
  Mn  Mn24  1  0.152073  0.388918  0.471337  1
  Mn  Mn25  1  0.663940  0.958127  0.499980  1
  Mn  Mn26  1  0.718686  0.818933  0.196829  1
  Mn  Mn27  1  0.388918  0.152073  0.528663  1
  Mn  Mn28  1  0.209374  0.209374  0.000000  1
  Mn  Mn29  1  0.611082  0.763156  0.804670  1
  Mn  Mn30  1  0.485497  0.053723  0.135830  1
  Mn  Mn31  1  0.946277  0.431774  0.469164  1
  Mn  Mn32  1  0.818933  0.718686  0.803171  1
  Mn  Mn33  1  0.281314  0.100247  0.136504  1
  Mn  Mn34  1  0.763156  0.611082  0.195330  1
  Mn  Mn35  1  1.000000  0.630101  0.166667  1
  Ag  Ag36  1  0.369483  0.833271  0.913546  1
  Ag  Ag37  1  0.794509  0.555027  0.981237  1
  Ag  Ag38  1  0.444973  0.239482  0.314571  1
  Ag  Ag39  1  0.228448  0.654471  0.577386  1
  Ag  Ag40  1  0.682934  0.601295  0.592514  1
  Ag  Ag41  1  0.678978  0.297125  0.241098  1
  Ag  Ag42  1  0.961528  0.856239  0.346449  1
  Ag  Ag43  1  0.536211  0.166729  0.753121  1
  Ag  Ag44  1  0.065110  0.065110  0.500000  1
  Ag  Ag45  1  0.398705  0.081639  0.925847  1
  Ag  Ag46  1  0.000000  0.468210  0.666667  1
  Ag  Ag47  1  0.321022  0.618147  0.092235  1
  Ag  Ag48  1  0.468210  0.000000  0.333333  1
  Ag  Ag49  1  0.531790  0.531790  0.000000  1
  Ag  Ag50  1  0.426024  0.771552  0.244052  1
  Ag  Ag51  1  0.573976  0.345529  0.089281  1
  Ag  Ag52  1  0.771552  0.426024  0.755948  1
  Ag  Ag53  1  0.345529  0.573976  0.910719  1
  Ag  Ag54  1  0.317066  0.918361  0.740820  1
  Ag  Ag55  1  0.169823  0.000000  0.833333  1
  Ag  Ag56  1  0.038472  0.894711  0.986884  1
  Ag  Ag57  1  0.381853  0.702875  0.425568  1
  Ag  Ag58  1  0.771107  0.771107  0.000000  1
  Ag  Ag59  1  0.630517  0.463789  0.419787  1
  Ag  Ag60  1  0.934890  0.000000  0.833333  1
  Ag  Ag61  1  0.143761  0.105289  0.679783  1
  Ag  Ag62  1  0.081639  0.398705  0.074153  1
  Ag  Ag63  1  0.166729  0.536211  0.246879  1
  Ag  Ag64  1  0.239482  0.444973  0.685429  1
  Ag  Ag65  1  0.760518  0.205491  0.647904  1
  Ag  Ag66  1  0.856239  0.961528  0.653551  1
  Ag  Ag67  1  1.000000  0.169823  0.166667  1
  Ag  Ag68  1  0.918361  0.317066  0.259180  1
  Ag  Ag69  1  0.702875  0.381853  0.574432  1
  Ag  Ag70  1  0.833271  0.369483  0.086454  1
  Ag  Ag71  1  0.654471  0.228448  0.422614  1
  Ag  Ag72  1  0.463789  0.630517  0.580213  1
  Ag  Ag73  1  0.000000  0.228893  0.666667  1
  Ag  Ag74  1  0.228893  0.000000  0.333333  1
  Ag  Ag75  1  1.000000  0.934890  0.166667  1
  Ag  Ag76  1  0.105289  0.143761  0.320217  1
  Ag  Ag77  1  0.601295  0.682934  0.407486  1
  Ag  Ag78  1  0.830177  0.830177  0.500000  1
  Ag  Ag79  1  0.618147  0.321022  0.907765  1
  Ag  Ag80  1  0.297125  0.678978  0.758902  1
  Ag  Ag81  1  0.205491  0.760518  0.352096  1
  Ag  Ag82  1  0.894711  0.038472  0.013116  1
  Ag  Ag83  1  0.555027  0.794509  0.018763  1
  O  O84  1  0.911661  0.851512  0.727341  1
  O  O85  1  0.945561  0.764073  0.885392  1
  O  O86  1  0.148488  0.060149  0.060675  1
  O  O87  1  0.060149  0.148488  0.939325  1
  O  O88  1  0.939851  0.088339  0.394008  1
  O  O89  1  0.259171  0.348412  0.921785  1
  O  O90  1  0.605379  0.425290  0.723269  1
  O  O91  1  0.999914  0.333452  0.404359  1
  O  O92  1  0.235927  0.181488  0.218726  1
  O  O93  1  0.088339  0.939851  0.605992  1
  O  O94  1  0.105959  0.612945  0.782223  1
  O  O95  1  0.120250  0.839162  0.755293  1
  O  O96  1  0.089240  0.740829  0.588452  1
  O  O97  1  0.954946  0.502260  0.246914  1
  O  O98  1  0.000086  0.333538  0.928975  1
  O  O99  1  0.425290  0.605379  0.276731  1
  O  O100  1  0.651588  0.910760  0.255118  1
  O  O101  1  0.764073  0.945561  0.114608  1
  O  O102  1  0.807604  0.760170  0.134651  1
  O  O103  1  0.272056  0.753940  0.059070  1
  O  O104  1  0.592366  0.016200  0.586646  1
  O  O105  1  0.493014  0.387055  0.884443  1
  O  O106  1  0.348412  0.259171  0.078215  1
  O  O107  1  0.192396  0.952566  0.198683  1
  O  O108  1  0.818512  0.054439  0.552059  1
  O  O109  1  0.170252  0.787071  0.912808  1
  O  O110  1  0.280429  0.849583  0.474042  1
  O  O111  1  0.717869  0.157238  0.782159  1
  O  O112  1  0.574710  0.180090  0.056603  1
  O  O113  1  0.753940  0.272056  0.940930  1
  O  O114  1  0.481884  0.727944  0.725736  1
  O  O115  1  0.054439  0.818512  0.447941  1
  O  O116  1  0.683820  0.922811  0.746562  1
  O  O117  1  0.476911  0.091450  0.467868  1
  O  O118  1  0.718912  0.879750  0.421959  1
  O  O119  1  0.452685  0.497740  0.419752  1
  O  O120  1  0.829748  0.616820  0.420525  1
  O  O121  1  0.922811  0.683820  0.253438  1
  O  O122  1  0.333538  0.000086  0.071025  1
  O  O123  1  0.506986  0.894041  0.448890  1
  O  O124  1  0.333452  0.999914  0.595641  1
  O  O125  1  0.787071  0.170252  0.087192  1
  O  O126  1  0.077189  0.761009  0.079895  1
  O  O127  1  0.316180  0.238991  0.586772  1
  O  O128  1  0.387055  0.493014  0.115557  1
  O  O129  1  0.518116  0.246060  0.607597  1
  O  O130  1  0.423833  0.407634  0.253312  1
  O  O131  1  0.047434  0.239830  0.532016  1
  O  O132  1  0.727944  0.481884  0.274264  1
  O  O133  1  0.879750  0.718912  0.578041  1
  O  O134  1  0.181488  0.235927  0.781274  1
  O  O135  1  0.383180  0.212929  0.753859  1
  O  O136  1  0.719571  0.569154  0.859291  1
  O  O137  1  0.430846  0.150417  0.192625  1
  O  O138  1  0.614538  0.523089  0.134535  1
  O  O139  1  0.157238  0.717869  0.217841  1
  O  O140  1  0.908551  0.385462  0.801201  1
  O  O141  1  0.281088  0.160838  0.911374  1
  O  O142  1  0.616820  0.829748  0.579475  1
  O  O143  1  0.849583  0.280429  0.525958  1
  O  O144  1  0.910760  0.651588  0.744882  1
  O  O145  1  0.819910  0.394621  0.389936  1
  O  O146  1  0.547315  0.045054  0.913581  1
  O  O147  1  0.407634  0.423833  0.746688  1
  O  O148  1  0.523089  0.614538  0.865465  1
  O  O149  1  0.983800  0.576167  0.919979  1
  O  O150  1  0.842762  0.560631  0.115493  1
  O  O151  1  0.246060  0.518116  0.392403  1
  O  O152  1  0.851512  0.911661  0.272659  1
  O  O153  1  0.497740  0.452685  0.580248  1
  O  O154  1  0.569154  0.719571  0.140709  1
  O  O155  1  0.839162  0.120250  0.244707  1
  O  O156  1  0.239830  0.047434  0.467984  1
  O  O157  1  0.666462  0.666548  0.262308  1
  O  O158  1  0.612945  0.105959  0.217777  1
  O  O159  1  0.180090  0.574710  0.943397  1
  O  O160  1  0.385462  0.908551  0.198799  1
  O  O161  1  0.761009  0.077189  0.920105  1
  O  O162  1  0.045054  0.547315  0.086419  1
  O  O163  1  0.760170  0.807604  0.865349  1
  O  O164  1  0.091450  0.476911  0.532132  1
  O  O165  1  0.212929  0.383180  0.246141  1
  O  O166  1  0.502260  0.954946  0.753086  1
  O  O167  1  0.740829  0.089240  0.411548  1
  O  O168  1  0.150417  0.430846  0.807375  1
  O  O169  1  0.576167  0.983800  0.080021  1
  O  O170  1  0.560631  0.842762  0.884507  1
  O  O171  1  0.160838  0.281088  0.088626  1
  O  O172  1  0.394621  0.819910  0.610064  1
  O  O173  1  0.666548  0.666462  0.737692  1
  O  O174  1  0.282131  0.439369  0.551174  1
  O  O175  1  0.238991  0.316180  0.413228  1
  O  O176  1  0.439369  0.282131  0.448826  1
  O  O177  1  0.894041  0.506986  0.551110  1
  O  O178  1  0.952566  0.192396  0.801317  1
  O  O179  1  0.016200  0.592366  0.413354  1
