# generated using pymatgen
data_Mn3Cd2O8
_symmetry_space_group_name_H-M   'P 1'
_cell_length_a   5.04582377
_cell_length_b   5.94350015
_cell_length_c   6.21475111
_cell_angle_alpha   118.56639645
_cell_angle_beta   106.62583429
_cell_angle_gamma   90.00000007
_symmetry_Int_Tables_number   1
_chemical_formula_structural   Mn3Cd2O8
_chemical_formula_sum   'Mn3 Cd2 O8'
_cell_volume   154.76029957
_cell_formula_units_Z   1
loop_
 _symmetry_equiv_pos_site_id
 _symmetry_equiv_pos_as_xyz
  1  'x, y, z'
loop_
 _atom_site_type_symbol
 _atom_site_label
 _atom_site_symmetry_multiplicity
 _atom_site_fract_x
 _atom_site_fract_y
 _atom_site_fract_z
 _atom_site_occupancy
  O  O0  1  0.046994  0.395938  0.791875  1
  O  O1  1  0.953007  0.604062  0.208126  1
  O  O2  1  0.098502  0.903091  0.806183  1
  O  O3  1  0.901497  0.096909  0.193817  1
  O  O4  1  0.388419  0.325176  0.207233  1
  O  O5  1  0.388419  0.882056  0.207233  1
  O  O6  1  0.611582  0.117942  0.792767  1
  O  O7  1  0.611582  0.674825  0.792767  1
  Mn  Mn8  1  0.500001  0.999999  1.000000  1
  Mn  Mn9  1  1.000000  0.742360  0.999999  1
  Mn  Mn10  1  0.000001  0.257642  0.000001  1
  Cd  Cd11  1  0.658322  0.719550  0.439099  1
  Cd  Cd12  1  0.341679  0.280450  0.560902  1
