# generated using pymatgen
data_CeMo5O8
_symmetry_space_group_name_H-M   'P 1'
_cell_length_a   8.46972023
_cell_length_b   9.39019872
_cell_length_c   10.80961557
_cell_angle_alpha   90.00000000
_cell_angle_beta   110.80832312
_cell_angle_gamma   90.00000000
_symmetry_Int_Tables_number   1
_chemical_formula_structural   CeMo5O8
_chemical_formula_sum   'Ce4 Mo20 O32'
_cell_volume   803.63854684
_cell_formula_units_Z   4
loop_
 _symmetry_equiv_pos_site_id
 _symmetry_equiv_pos_as_xyz
  1  'x, y, z'
loop_
 _atom_site_type_symbol
 _atom_site_label
 _atom_site_symmetry_multiplicity
 _atom_site_fract_x
 _atom_site_fract_y
 _atom_site_fract_z
 _atom_site_occupancy
  Ce  Ce0  1  0.280649  0.524018  0.507197  1
  Ce  Ce1  1  0.719351  0.024018  0.992803  1
  Ce  Ce2  1  0.719351  0.475982  0.492803  1
  Ce  Ce3  1  0.280649  0.975982  0.007197  1
  Mo  Mo4  1  0.603913  0.852731  0.482232  1
  Mo  Mo5  1  0.396087  0.352731  0.017768  1
  Mo  Mo6  1  0.396087  0.147269  0.517768  1
  Mo  Mo7  1  0.603913  0.647269  0.982232  1
  Mo  Mo8  1  0.413277  0.868808  0.695064  1
  Mo  Mo9  1  0.586723  0.368808  0.804936  1
  Mo  Mo10  1  0.586723  0.131192  0.304936  1
  Mo  Mo11  1  0.413277  0.631192  0.195064  1
  Mo  Mo12  1  0.192980  0.876153  0.363870  1
  Mo  Mo13  1  0.807020  0.376153  0.136130  1
  Mo  Mo14  1  0.807020  0.123847  0.636130  1
  Mo  Mo15  1  0.192980  0.623847  0.863870  1
  Mo  Mo16  1  0.795676  0.850974  0.278005  1
  Mo  Mo17  1  0.204324  0.350974  0.221995  1
  Mo  Mo18  1  0.204324  0.149026  0.721995  1
  Mo  Mo19  1  0.795676  0.649026  0.778005  1
  Mo  Mo20  1  0.011674  0.853282  0.588266  1
  Mo  Mo21  1  0.988326  0.353282  0.911734  1
  Mo  Mo22  1  0.988326  0.146718  0.411734  1
  Mo  Mo23  1  0.011674  0.646718  0.088266  1
  O  O24  1  0.409880  0.009782  0.853070  1
  O  O25  1  0.590120  0.509782  0.646930  1
  O  O26  1  0.590120  0.990218  0.146930  1
  O  O27  1  0.409880  0.490218  0.353070  1
  O  O28  1  0.015796  0.752407  0.913948  1
  O  O29  1  0.984204  0.252407  0.586052  1
  O  O30  1  0.984204  0.247593  0.086052  1
  O  O31  1  0.015796  0.747593  0.413948  1
  O  O32  1  0.972994  0.000927  0.253913  1
  O  O33  1  0.027006  0.500927  0.246087  1
  O  O34  1  0.027006  0.999073  0.746087  1
  O  O35  1  0.972994  0.499073  0.753913  1
  O  O36  1  0.393238  0.745222  0.011936  1
  O  O37  1  0.606762  0.245222  0.488064  1
  O  O38  1  0.606762  0.254778  0.988064  1
  O  O39  1  0.393238  0.754778  0.511936  1
  O  O40  1  0.809284  0.774693  0.099387  1
  O  O41  1  0.190716  0.274693  0.400613  1
  O  O42  1  0.190716  0.225307  0.900613  1
  O  O43  1  0.809284  0.725307  0.599387  1
  O  O44  1  0.217127  0.773645  0.197935  1
  O  O45  1  0.782873  0.273645  0.302065  1
  O  O46  1  0.782873  0.226355  0.802065  1
  O  O47  1  0.217127  0.726355  0.697935  1
  O  O48  1  0.630554  0.786980  0.836284  1
  O  O49  1  0.369446  0.286980  0.663716  1
  O  O50  1  0.369446  0.213020  0.163716  1
  O  O51  1  0.630554  0.713020  0.336284  1
  O  O52  1  0.412437  1.001472  0.365382  1
  O  O53  1  0.587563  0.501472  0.134618  1
  O  O54  1  0.587563  -0.001472  0.634618  1
  O  O55  1  0.412437  0.498528  0.865382  1
