# generated using pymatgen
data_Mn3(CuO4)2
_symmetry_space_group_name_H-M   'P 1'
_cell_length_a   5.02954608
_cell_length_b   5.62791531
_cell_length_c   5.62791553
_cell_angle_alpha   61.52553943
_cell_angle_beta   81.53369537
_cell_angle_gamma   81.53369929
_symmetry_Int_Tables_number   1
_chemical_formula_structural   Mn3(CuO4)2
_chemical_formula_sum   'Mn3 Cu2 O8'
_cell_volume   137.96135657
_cell_formula_units_Z   1
loop_
 _symmetry_equiv_pos_site_id
 _symmetry_equiv_pos_as_xyz
  1  'x, y, z'
loop_
 _atom_site_type_symbol
 _atom_site_label
 _atom_site_symmetry_multiplicity
 _atom_site_fract_x
 _atom_site_fract_y
 _atom_site_fract_z
 _atom_site_occupancy
  O  O0  1  0.859880  0.899397  0.899397  1
  O  O1  1  0.140121  0.100603  0.100603  1
  O  O2  1  0.112201  0.607017  0.607017  1
  O  O3  1  0.887800  0.392982  0.392983  1
  O  O4  1  0.638582  0.891215  0.348928  1
  O  O5  1  0.638582  0.348928  0.891215  1
  O  O6  1  0.361419  0.651072  0.108785  1
  O  O7  1  0.361419  0.108785  0.651072  1
  Mn  Mn8  1  0.500000  0.000000  0.000001  1
  Mn  Mn9  1  0.000000  0.256209  0.743791  1
  Mn  Mn10  1  0.999999  0.743791  0.256209  1
  Cu  Cu11  1  0.574731  0.289285  0.289285  1
  Cu  Cu12  1  0.425270  0.710716  0.710714  1
