# generated using pymatgen
data_Mn3Cu3O8
_symmetry_space_group_name_H-M   'P 1'
_cell_length_a   5.96402812
_cell_length_b   5.96402877
_cell_length_c   5.96402813
_cell_angle_alpha   60.51259994
_cell_angle_beta   60.51259633
_cell_angle_gamma   60.51260192
_symmetry_Int_Tables_number   1
_chemical_formula_structural   Mn3Cu3O8
_chemical_formula_sum   'Mn3 Cu3 O8'
_cell_volume   151.74204642
_cell_formula_units_Z   1
loop_
 _symmetry_equiv_pos_site_id
 _symmetry_equiv_pos_as_xyz
  1  'x, y, z'
loop_
 _atom_site_type_symbol
 _atom_site_label
 _atom_site_symmetry_multiplicity
 _atom_site_fract_x
 _atom_site_fract_y
 _atom_site_fract_z
 _atom_site_occupancy
  Mn  Mn0  1  0.125000  0.625000  0.625000  1
  Mn  Mn1  1  0.625000  0.125000  0.625000  1
  Mn  Mn2  1  0.625000  0.625000  0.125000  1
  Cu  Cu3  1  0.001423  0.001423  0.001423  1
  Cu  Cu4  1  0.248577  0.248577  0.248577  1
  Cu  Cu5  1  0.625000  0.625000  0.625000  1
  O  O6  1  0.383496  0.383496  0.383496  1
  O  O7  1  0.381817  0.381817  0.837332  1
  O  O8  1  0.381817  0.837332  0.381817  1
  O  O9  1  0.837332  0.381817  0.381817  1
  O  O10  1  0.412668  0.868183  0.868183  1
  O  O11  1  0.868183  0.412668  0.868183  1
  O  O12  1  0.868183  0.868183  0.412668  1
  O  O13  1  0.866504  0.866504  0.866504  1
