# generated using pymatgen
data_Mn3(Ni17O20)2
_symmetry_space_group_name_H-M   'P 1'
_cell_length_a   5.96249868
_cell_length_b   5.96249868
_cell_length_c   21.47797550
_cell_angle_alpha   97.97869983
_cell_angle_beta   97.97869983
_cell_angle_gamma   90.00000000
_symmetry_Int_Tables_number   1
_chemical_formula_structural   Mn3(Ni17O20)2
_chemical_formula_sum   'Mn3 Ni34 O40'
_cell_volume   748.71577546
_cell_formula_units_Z   1
loop_
 _symmetry_equiv_pos_site_id
 _symmetry_equiv_pos_as_xyz
  1  'x, y, z'
loop_
 _atom_site_type_symbol
 _atom_site_label
 _atom_site_symmetry_multiplicity
 _atom_site_fract_x
 _atom_site_fract_y
 _atom_site_fract_z
 _atom_site_occupancy
  Mn  Mn0  1  0.599665  0.599665  0.199329  1
  Mn  Mn1  1  0.200000  0.200000  0.400000  1
  Mn  Mn2  1  0.800335  0.800335  0.600671  1
  Ni  Ni3  1  0.500177  0.000177  0.000354  1
  Ni  Ni4  1  0.999324  0.999324  0.998648  1
  Ni  Ni5  1  0.000177  0.500177  0.000354  1
  Ni  Ni6  1  0.499936  0.499936  0.999871  1
  Ni  Ni7  1  0.807183  0.807183  0.101066  1
  Ni  Ni8  1  0.293884  0.807183  0.101066  1
  Ni  Ni9  1  0.807183  0.293884  0.101066  1
  Ni  Ni10  1  0.293884  0.293884  0.101066  1
  Ni  Ni11  1  0.100207  0.600207  0.200414  1
  Ni  Ni12  1  0.600207  0.100207  0.200414  1
  Ni  Ni13  1  0.399769  0.399769  0.299933  1
  Ni  Ni14  1  0.900165  0.399769  0.299933  1
  Ni  Ni15  1  0.900165  0.900165  0.299933  1
  Ni  Ni16  1  0.399769  0.900165  0.299933  1
  Ni  Ni17  1  0.700000  0.200000  0.400000  1
  Ni  Ni18  1  0.200000  0.700000  0.400000  1
  Ni  Ni19  1  0.499835  0.499835  0.500067  1
  Ni  Ni20  1  0.000231  0.000231  0.500067  1
  Ni  Ni21  1  0.000231  0.499835  0.500067  1
  Ni  Ni22  1  0.499835  0.000231  0.500067  1
  Ni  Ni23  1  0.299793  0.799793  0.599586  1
  Ni  Ni24  1  0.799793  0.299793  0.599586  1
  Ni  Ni25  1  0.592817  0.106116  0.698934  1
  Ni  Ni26  1  0.592817  0.592817  0.698934  1
  Ni  Ni27  1  0.106116  0.106116  0.698934  1
  Ni  Ni28  1  0.106116  0.592817  0.698934  1
  Ni  Ni29  1  0.399823  0.899823  0.799646  1
  Ni  Ni30  1  0.900064  0.900064  0.800129  1
  Ni  Ni31  1  0.400676  0.400676  0.801352  1
  Ni  Ni32  1  0.899823  0.399823  0.799646  1
  Ni  Ni33  1  0.700000  0.200000  0.900000  1
  Ni  Ni34  1  0.700000  0.700000  0.900000  1
  Ni  Ni35  1  0.200000  0.200000  0.900000  1
  Ni  Ni36  1  0.200000  0.700000  0.900000  1
  O  O37  1  0.747555  0.252708  0.000263  1
  O  O38  1  0.252708  0.252708  0.000263  1
  O  O39  1  0.252708  0.747555  0.000263  1
  O  O40  1  0.747555  0.747555  0.000263  1
  O  O41  1  0.046841  0.046841  0.093683  1
  O  O42  1  0.550449  0.050449  0.100898  1
  O  O43  1  0.050449  0.550449  0.100898  1
  O  O44  1  0.552620  0.552620  0.105239  1
  O  O45  1  0.370953  0.829615  0.200568  1
  O  O46  1  0.829615  0.829615  0.200568  1
  O  O47  1  0.829615  0.370953  0.200568  1
  O  O48  1  0.370953  0.370953  0.200568  1
  O  O49  1  0.645203  0.645203  0.290406  1
  O  O50  1  0.150205  0.650205  0.300410  1
  O  O51  1  0.650205  0.150205  0.300410  1
  O  O52  1  0.154160  0.154160  0.308321  1
  O  O53  1  0.970451  0.429549  0.400000  1
  O  O54  1  0.429549  0.429549  0.400000  1
  O  O55  1  0.429549  0.970451  0.400000  1
  O  O56  1  0.970451  0.970451  0.400000  1
  O  O57  1  0.245840  0.245840  0.491679  1
  O  O58  1  0.749795  0.249795  0.499590  1
  O  O59  1  0.249795  0.749795  0.499590  1
  O  O60  1  0.754797  0.754797  0.509594  1
  O  O61  1  0.570385  0.029047  0.599432  1
  O  O62  1  0.029047  0.029047  0.599432  1
  O  O63  1  0.570385  0.570385  0.599432  1
  O  O64  1  0.029047  0.570385  0.599432  1
  O  O65  1  0.847380  0.847380  0.694761  1
  O  O66  1  0.349551  0.849551  0.699102  1
  O  O67  1  0.849551  0.349551  0.699102  1
  O  O68  1  0.353159  0.353159  0.706317  1
  O  O69  1  0.147292  0.652445  0.799737  1
  O  O70  1  0.652445  0.147292  0.799737  1
  O  O71  1  0.147292  0.147292  0.799737  1
  O  O72  1  0.652445  0.652445  0.799737  1
  O  O73  1  0.450080  0.450080  0.900161  1
  O  O74  1  0.950000  0.450000  0.900000  1
  O  O75  1  0.450000  0.950000  0.900000  1
  O  O76  1  0.949920  0.949920  0.899839  1
