# generated using pymatgen
data_MnAgO4
_symmetry_space_group_name_H-M   'P 1'
_cell_length_a   6.10370780
_cell_length_b   6.68178182
_cell_length_c   9.42054867
_cell_angle_alpha   90.00000000
_cell_angle_beta   90.00000000
_cell_angle_gamma   98.50441168
_symmetry_Int_Tables_number   1
_chemical_formula_structural   MnAgO4
_chemical_formula_sum   'Mn4 Ag4 O16'
_cell_volume   379.97977526
_cell_formula_units_Z   4
loop_
 _symmetry_equiv_pos_site_id
 _symmetry_equiv_pos_as_xyz
  1  'x, y, z'
loop_
 _atom_site_type_symbol
 _atom_site_label
 _atom_site_symmetry_multiplicity
 _atom_site_fract_x
 _atom_site_fract_y
 _atom_site_fract_z
 _atom_site_occupancy
  Mn  Mn0  1  0.795287  0.555235  0.982103  1
  Mn  Mn1  1  0.295287  0.055235  0.517897  1
  Mn  Mn2  1  0.204713  0.444765  0.017897  1
  Mn  Mn3  1  0.704713  0.944765  0.482103  1
  Ag  Ag4  1  0.826923  0.486124  0.636939  1
  Ag  Ag5  1  0.326923  0.986124  0.863061  1
  Ag  Ag6  1  0.173077  0.513876  0.363061  1
  Ag  Ag7  1  0.673077  0.013876  0.136939  1
  O  O8  1  0.459439  0.298622  0.551410  1
  O  O9  1  0.737179  0.388362  0.852401  1
  O  O10  1  0.224306  0.317382  0.554294  1
  O  O11  1  0.775694  0.682618  0.445706  1
  O  O12  1  0.275694  0.182618  0.054294  1
  O  O13  1  0.724306  0.817382  0.945706  1
  O  O14  1  0.540561  0.701378  0.448590  1
  O  O15  1  0.232029  0.969904  0.360564  1
  O  O16  1  0.959439  0.798622  0.948590  1
  O  O17  1  0.767971  0.030096  0.639436  1
  O  O18  1  0.762821  0.111638  0.352401  1
  O  O19  1  0.237179  0.888362  0.647599  1
  O  O20  1  0.262821  0.611638  0.147599  1
  O  O21  1  0.267971  0.530096  0.860564  1
  O  O22  1  0.040561  0.201378  0.051410  1
  O  O23  1  0.732029  0.469904  0.139436  1
