# generated using pymatgen
data_Mn(AgO2)2
_symmetry_space_group_name_H-M   'P 1'
_cell_length_a   5.58801882
_cell_length_b   6.97460593
_cell_length_c   9.89595347
_cell_angle_alpha   90.00000000
_cell_angle_beta   90.00000000
_cell_angle_gamma   90.00000000
_symmetry_Int_Tables_number   1
_chemical_formula_structural   Mn(AgO2)2
_chemical_formula_sum   'Mn4 Ag8 O16'
_cell_volume   385.68715868
_cell_formula_units_Z   4
loop_
 _symmetry_equiv_pos_site_id
 _symmetry_equiv_pos_as_xyz
  1  'x, y, z'
loop_
 _atom_site_type_symbol
 _atom_site_label
 _atom_site_symmetry_multiplicity
 _atom_site_fract_x
 _atom_site_fract_y
 _atom_site_fract_z
 _atom_site_occupancy
  Mn  Mn0  1  0.967340  0.750000  0.685502  1
  Mn  Mn1  1  0.467340  0.250000  0.814498  1
  Mn  Mn2  1  0.032660  0.250000  0.314498  1
  Mn  Mn3  1  0.532660  0.750000  0.185502  1
  Ag  Ag4  1  0.500000  0.500000  0.500000  1
  Ag  Ag5  1  0.000000  0.500000  0.000000  1
  Ag  Ag6  1  0.500000  0.000000  0.500000  1
  Ag  Ag7  1  0.000000  0.000000  0.000000  1
  Ag  Ag8  1  0.017945  0.750000  0.352102  1
  Ag  Ag9  1  0.517945  0.250000  0.147898  1
  Ag  Ag10  1  0.982055  0.250000  0.647899  1
  Ag  Ag11  1  0.482055  0.750000  0.852101  1
  O  O12  1  0.591875  0.750000  0.360419  1
  O  O13  1  0.091875  0.250000  0.139581  1
  O  O14  1  0.408125  0.250000  0.639581  1
  O  O15  1  0.908125  0.750000  0.860419  1
  O  O16  1  0.236395  0.750000  0.150003  1
  O  O17  1  0.736395  0.250000  0.349997  1
  O  O18  1  0.763605  0.250000  0.849997  1
  O  O19  1  0.263605  0.750000  0.650003  1
  O  O20  1  0.667499  0.549502  0.116790  1
  O  O21  1  0.167499  0.450498  0.383210  1
  O  O22  1  0.332501  0.049502  0.883210  1
  O  O23  1  0.832501  0.950498  0.616790  1
  O  O24  1  0.332501  0.450498  0.883210  1
  O  O25  1  0.832501  0.549502  0.616790  1
  O  O26  1  0.667499  0.950498  0.116790  1
  O  O27  1  0.167499  0.049502  0.383210  1
