# generated using pymatgen
data_Mn2CdO4
_symmetry_space_group_name_H-M   'P 1'
_cell_length_a   5.94626963
_cell_length_b   5.94626948
_cell_length_c   6.52406323
_cell_angle_alpha   117.11116675
_cell_angle_beta   117.11116611
_cell_angle_gamma   89.99999283
_symmetry_Int_Tables_number   1
_chemical_formula_structural   Mn2CdO4
_chemical_formula_sum   'Mn4 Cd2 O8'
_cell_volume   176.38115517
_cell_formula_units_Z   2
loop_
 _symmetry_equiv_pos_site_id
 _symmetry_equiv_pos_as_xyz
  1  'x, y, z'
loop_
 _atom_site_type_symbol
 _atom_site_label
 _atom_site_symmetry_multiplicity
 _atom_site_fract_x
 _atom_site_fract_y
 _atom_site_fract_z
 _atom_site_occupancy
  Mn  Mn0  1  0.000000  -0.000000  0.500000  1
  Mn  Mn1  1  0.000000  -0.000000  -0.000000  1
  Mn  Mn2  1  0.000000  0.500000  -0.000000  1
  Mn  Mn3  1  0.500000  -0.000000  0.500000  1
  Cd  Cd4  1  0.625000  0.375000  0.250000  1
  Cd  Cd5  1  0.375000  0.625000  0.750000  1
  O  O6  1  0.798639  0.766470  0.032939  1
  O  O7  1  0.766470  0.234300  0.532939  1
  O  O8  1  0.234300  0.766470  0.032939  1
  O  O9  1  0.201361  0.233530  0.967061  1
  O  O10  1  0.233530  0.765700  0.467061  1
  O  O11  1  0.233530  0.201361  0.467061  1
  O  O12  1  0.766470  0.798639  0.532939  1
  O  O13  1  0.765700  0.233530  0.967061  1
