# generated using pymatgen
data_MnCo3O8
_symmetry_space_group_name_H-M   'P 1'
_cell_length_a   8.01961646
_cell_length_b   8.04186251
_cell_length_c   8.07094209
_cell_angle_alpha   89.94925897
_cell_angle_beta   89.81677649
_cell_angle_gamma   90.17681532
_symmetry_Int_Tables_number   1
_chemical_formula_structural   MnCo3O8
_chemical_formula_sum   'Mn4 Co12 O32'
_cell_volume   520.51111883
_cell_formula_units_Z   4
loop_
 _symmetry_equiv_pos_site_id
 _symmetry_equiv_pos_as_xyz
  1  'x, y, z'
loop_
 _atom_site_type_symbol
 _atom_site_label
 _atom_site_symmetry_multiplicity
 _atom_site_fract_x
 _atom_site_fract_y
 _atom_site_fract_z
 _atom_site_occupancy
  Mn  Mn0  1  0.125205  0.874556  0.375205  1
  Mn  Mn1  1  0.375902  0.126905  0.875277  1
  Mn  Mn2  1  0.623179  0.626339  0.624826  1
  Mn  Mn3  1  0.875091  0.374975  0.125417  1
  Co  Co4  1  0.122691  0.127742  0.624483  1
  Co  Co5  1  0.125330  0.377913  0.872294  1
  Co  Co6  1  0.128322  0.622230  0.122342  1
  Co  Co7  1  0.372308  0.374809  0.622485  1
  Co  Co8  1  0.374258  0.622534  0.372968  1
  Co  Co9  1  0.377552  0.872334  0.125438  1
  Co  Co10  1  0.622106  0.371927  0.374260  1
  Co  Co11  1  0.625635  0.123045  0.127156  1
  Co  Co12  1  0.627462  0.874415  0.877380  1
  Co  Co13  1  0.871777  0.122377  0.377356  1
  Co  Co14  1  0.874705  0.877978  0.627881  1
  Co  Co15  1  0.878394  0.627487  0.874974  1
  O  O16  1  0.106626  0.115848  0.391193  1
  O  O17  1  0.108601  0.892787  0.614029  1
  O  O18  1  0.115106  0.609193  0.887119  1
  O  O19  1  0.134576  0.143333  0.858273  1
  O  O20  1  0.115156  0.390887  0.109235  1
  O  O21  1  0.139975  0.359929  0.636335  1
  O  O22  1  0.140903  0.636193  0.360425  1
  O  O23  1  0.142810  0.857689  0.135655  1
  O  O24  1  0.359468  0.141989  0.635905  1
  O  O25  1  0.359223  0.367244  0.857007  1
  O  O26  1  0.360108  0.635513  0.140467  1
  O  O27  1  0.383981  0.609290  0.608477  1
  O  O28  1  0.365405  0.858656  0.357866  1
  O  O29  1  0.389496  0.388480  0.388119  1
  O  O30  1  0.392638  0.108888  0.114285  1
  O  O31  1  0.389731  0.887397  0.891933  1
  O  O32  1  0.608945  0.386155  0.608203  1
  O  O33  1  0.607642  0.608310  0.385824  1
  O  O34  1  0.609793  0.887507  0.111190  1
  O  O35  1  0.634820  0.360017  0.141438  1
  O  O36  1  0.615654  0.109175  0.892352  1
  O  O37  1  0.638546  0.135384  0.359418  1
  O  O38  1  0.640126  0.866080  0.643265  1
  O  O39  1  0.641613  0.641983  0.864301  1
  O  O40  1  0.858053  0.357426  0.364589  1
  O  O41  1  0.858741  0.136393  0.140026  1
  O  O42  1  0.861090  0.860162  0.862936  1
  O  O43  1  0.884111  0.890072  0.391792  1
  O  O44  1  0.864860  0.643374  0.641597  1
  O  O45  1  0.886841  0.109304  0.612736  1
  O  O46  1  0.891303  0.391699  0.886298  1
  O  O47  1  0.894138  0.616219  0.108111  1
