# generated using pymatgen
data_MnCrO4
_symmetry_space_group_name_H-M   'P 1'
_cell_length_a   5.44909851
_cell_length_b   8.30235193
_cell_length_c   6.84976530
_cell_angle_alpha   90.00000000
_cell_angle_beta   95.30228121
_cell_angle_gamma   90.00000000
_symmetry_Int_Tables_number   1
_chemical_formula_structural   MnCrO4
_chemical_formula_sum   'Mn4 Cr4 O16'
_cell_volume   308.55967227
_cell_formula_units_Z   4
loop_
 _symmetry_equiv_pos_site_id
 _symmetry_equiv_pos_as_xyz
  1  'x, y, z'
loop_
 _atom_site_type_symbol
 _atom_site_label
 _atom_site_symmetry_multiplicity
 _atom_site_fract_x
 _atom_site_fract_y
 _atom_site_fract_z
 _atom_site_occupancy
  Mn  Mn0  1  0.234434  0.545212  0.352488  1
  Mn  Mn1  1  0.265566  0.045212  0.147512  1
  Mn  Mn2  1  0.734434  0.954788  0.852488  1
  Mn  Mn3  1  0.765566  0.454788  0.647512  1
  Cr  Cr4  1  0.238358  0.691493  0.856567  1
  Cr  Cr5  1  0.261642  0.191493  0.643433  1
  Cr  Cr6  1  0.738358  0.808507  0.356567  1
  Cr  Cr7  1  0.761642  0.308507  0.143433  1
  O  O8  1  0.019723  0.764838  0.299698  1
  O  O9  1  0.076478  0.606186  0.660081  1
  O  O10  1  0.092904  0.862818  0.918571  1
  O  O11  1  0.245402  0.065540  0.456652  1
  O  O12  1  0.254598  0.565540  0.043348  1
  O  O13  1  0.407096  0.362818  0.581429  1
  O  O14  1  0.423522  0.106186  0.839919  1
  O  O15  1  0.519723  0.735162  0.799698  1
  O  O16  1  0.480277  0.264838  0.200302  1
  O  O17  1  0.576478  0.893814  0.160081  1
  O  O18  1  0.592904  0.637182  0.418571  1
  O  O19  1  0.745402  0.434460  0.956652  1
  O  O20  1  0.754598  0.934460  0.543348  1
  O  O21  1  0.907096  0.137182  0.081429  1
  O  O22  1  0.923522  0.393814  0.339919  1
  O  O23  1  0.980277  0.235162  0.700302  1
