# generated using pymatgen
data_MnCrO4
_symmetry_space_group_name_H-M   'P 1'
_cell_length_a   6.35603945
_cell_length_b   10.70406781
_cell_length_c   5.10768838
_cell_angle_alpha   90.00466696
_cell_angle_beta   89.99987988
_cell_angle_gamma   90.00013981
_symmetry_Int_Tables_number   1
_chemical_formula_structural   MnCrO4
_chemical_formula_sum   'Mn4 Cr4 O16'
_cell_volume   347.50401581
_cell_formula_units_Z   4
loop_
 _symmetry_equiv_pos_site_id
 _symmetry_equiv_pos_as_xyz
  1  'x, y, z'
loop_
 _atom_site_type_symbol
 _atom_site_label
 _atom_site_symmetry_multiplicity
 _atom_site_fract_x
 _atom_site_fract_y
 _atom_site_fract_z
 _atom_site_occupancy
  Mn  Mn0  1  0.250001  0.274169  0.964394  1
  Mn  Mn1  1  0.250005  0.774203  0.535632  1
  Mn  Mn2  1  0.750005  0.225791  0.464355  1
  Mn  Mn3  1  0.749996  0.725797  0.035586  1
  Cr  Cr4  1  0.250003  0.095488  0.410545  1
  Cr  Cr5  1  0.249987  0.595485  0.089494  1
  Cr  Cr6  1  0.750004  0.404476  0.910576  1
  Cr  Cr7  1  0.750004  0.904526  0.589274  1
  O  O8  1  0.041175  0.170341  0.277401  1
  O  O9  1  0.041112  0.670363  0.222672  1
  O  O10  1  0.249993  0.445047  0.163895  1
  O  O11  1  0.250005  0.111878  0.732690  1
  O  O12  1  0.249999  0.611900  0.767340  1
  O  O13  1  0.250004  0.944968  0.336130  1
  O  O14  1  0.458829  0.170348  0.277400  1
  O  O15  1  0.458876  0.670361  0.222676  1
  O  O16  1  0.541104  0.829649  0.722653  1
  O  O17  1  0.541152  0.329648  0.777349  1
  O  O18  1  0.750000  0.555071  0.836175  1
  O  O19  1  0.750002  0.054995  0.663788  1
  O  O20  1  0.750005  0.388096  0.232521  1
  O  O21  1  0.750000  0.888107  0.267460  1
  O  O22  1  0.958841  0.329647  0.777343  1
  O  O23  1  0.958900  0.829647  0.722651  1
