# generated using pymatgen
data_Mn2CuO4
_symmetry_space_group_name_H-M   'P 1'
_cell_length_a   6.02715723
_cell_length_b   6.07791671
_cell_length_c   6.02715808
_cell_angle_alpha   59.72101802
_cell_angle_beta   61.11228287
_cell_angle_gamma   59.72101345
_symmetry_Int_Tables_number   1
_chemical_formula_structural   Mn2CuO4
_chemical_formula_sum   'Mn4 Cu2 O8'
_cell_volume   156.71367147
_cell_formula_units_Z   2
loop_
 _symmetry_equiv_pos_site_id
 _symmetry_equiv_pos_as_xyz
  1  'x, y, z'
loop_
 _atom_site_type_symbol
 _atom_site_label
 _atom_site_symmetry_multiplicity
 _atom_site_fract_x
 _atom_site_fract_y
 _atom_site_fract_z
 _atom_site_occupancy
  Cu  Cu0  1  0.625000  0.125000  0.625000  1
  Cu  Cu1  1  0.625000  0.625000  0.625000  1
  Mn  Mn2  1  0.005245  0.994755  0.005245  1
  Mn  Mn3  1  0.244755  0.255245  0.244755  1
  Mn  Mn4  1  0.125000  0.625000  0.625000  1
  Mn  Mn5  1  0.625000  0.625000  0.125000  1
  O  O6  1  0.380514  0.394747  0.380514  1
  O  O7  1  0.376818  0.393082  0.837017  1
  O  O8  1  0.380514  0.844224  0.380514  1
  O  O9  1  0.412983  0.856918  0.873182  1
  O  O10  1  0.837017  0.393082  0.376818  1
  O  O11  1  0.873182  0.856918  0.412983  1
  O  O12  1  0.869486  0.405776  0.869486  1
  O  O13  1  0.869486  0.855253  0.869486  1
