# generated using pymatgen
data_Mn2CuO4
_symmetry_space_group_name_H-M   'P 1'
_cell_length_a   6.02008504
_cell_length_b   6.02008559
_cell_length_c   6.02008474
_cell_angle_alpha   60.30232423
_cell_angle_beta   60.30232122
_cell_angle_gamma   60.30232575
_symmetry_Int_Tables_number   1
_chemical_formula_structural   Mn2CuO4
_chemical_formula_sum   'Mn4 Cu2 O8'
_cell_volume   155.32948366
_cell_formula_units_Z   2
loop_
 _symmetry_equiv_pos_site_id
 _symmetry_equiv_pos_as_xyz
  1  'x, y, z'
loop_
 _atom_site_type_symbol
 _atom_site_label
 _atom_site_symmetry_multiplicity
 _atom_site_fract_x
 _atom_site_fract_y
 _atom_site_fract_z
 _atom_site_occupancy
  Mn  Mn0  1  0.002110  0.002110  0.002110  1
  Mn  Mn1  1  0.127325  0.624241  0.624241  1
  Mn  Mn2  1  0.624241  0.624241  0.127325  1
  Mn  Mn3  1  0.624241  0.127325  0.624241  1
  Cu  Cu4  1  0.248637  0.248637  0.248637  1
  Cu  Cu5  1  0.624595  0.624595  0.624595  1
  O  O6  1  0.380840  0.380840  0.380840  1
  O  O7  1  0.380441  0.837145  0.380441  1
  O  O8  1  0.380441  0.380441  0.837145  1
  O  O9  1  0.837145  0.380441  0.380441  1
  O  O10  1  0.416665  0.868446  0.868446  1
  O  O11  1  0.868446  0.416665  0.868446  1
  O  O12  1  0.868446  0.868446  0.416665  1
  O  O13  1  0.866428  0.866428  0.866428  1
