# generated using pymatgen
data_Mn2CuO4
_symmetry_space_group_name_H-M   'P 1'
_cell_length_a   6.02316781
_cell_length_b   6.02316780
_cell_length_c   6.02316751
_cell_angle_alpha   60.00000164
_cell_angle_beta   60.00000168
_cell_angle_gamma   59.99999763
_symmetry_Int_Tables_number   1
_chemical_formula_structural   Mn2CuO4
_chemical_formula_sum   'Mn4 Cu2 O8'
_cell_volume   154.51116674
_cell_formula_units_Z   2
loop_
 _symmetry_equiv_pos_site_id
 _symmetry_equiv_pos_as_xyz
  1  'x, y, z'
loop_
 _atom_site_type_symbol
 _atom_site_label
 _atom_site_symmetry_multiplicity
 _atom_site_fract_x
 _atom_site_fract_y
 _atom_site_fract_z
 _atom_site_occupancy
  O  O0  1  0.738988  0.738988  0.738988  1
  O  O1  1  0.261013  0.261011  0.716965  1
  O  O2  1  0.261012  0.716965  0.261012  1
  O  O3  1  0.716965  0.261011  0.261012  1
  O  O4  1  0.738989  0.283036  0.738987  1
  O  O5  1  0.283036  0.738988  0.738988  1
  O  O6  1  0.261013  0.261011  0.261012  1
  O  O7  1  0.738988  0.738988  0.283035  1
  Mn  Mn8  1  0.500000  0.000000  0.500000  1
  Mn  Mn9  1  0.000000  0.499999  0.500001  1
  Mn  Mn10  1  0.500000  0.499999  0.000001  1
  Mn  Mn11  1  0.500000  0.499999  0.500000  1
  Cu  Cu12  1  0.124999  0.125000  0.125000  1
  Cu  Cu13  1  0.874999  0.875001  0.875000  1
