# generated using pymatgen
data_Mn2Hg5
_symmetry_space_group_name_H-M   'P 1'
_cell_length_a   3.01698586
_cell_length_b   10.00513955
_cell_length_c   10.00513955
_cell_angle_alpha   90.00000000
_cell_angle_beta   90.00000000
_cell_angle_gamma   90.00000000
_symmetry_Int_Tables_number   1
_chemical_formula_structural   Mn2Hg5
_chemical_formula_sum   'Mn4 Hg10'
_cell_volume   302.00878469
_cell_formula_units_Z   2
loop_
 _symmetry_equiv_pos_site_id
 _symmetry_equiv_pos_as_xyz
  1  'x, y, z'
loop_
 _atom_site_type_symbol
 _atom_site_label
 _atom_site_symmetry_multiplicity
 _atom_site_fract_x
 _atom_site_fract_y
 _atom_site_fract_z
 _atom_site_occupancy
  Mn  Mn0  1  0.500000  0.819422  0.319422  1
  Mn  Mn1  1  0.500000  0.680578  0.819422  1
  Mn  Mn2  1  0.500000  0.319422  0.180578  1
  Mn  Mn3  1  0.500000  0.180578  0.680578  1
  Hg  Hg4  1  0.000000  0.203327  0.935778  1
  Hg  Hg5  1  0.000000  0.935778  0.796673  1
  Hg  Hg6  1  0.000000  0.564222  0.296673  1
  Hg  Hg7  1  0.000000  0.435778  0.703327  1
  Hg  Hg8  1  0.000000  0.703327  0.564222  1
  Hg  Hg9  1  0.000000  0.296673  0.435778  1
  Hg  Hg10  1  0.000000  0.796673  0.064222  1
  Hg  Hg11  1  0.000000  0.064222  0.203327  1
  Hg  Hg12  1  0.000000  0.500000  0.000000  1
  Hg  Hg13  1  0.000000  0.000000  0.500000  1
