# generated using pymatgen
data_Mn2Hg2O7
_symmetry_space_group_name_H-M   'P 1'
_cell_length_a   7.16362752
_cell_length_b   7.16355466
_cell_length_c   7.16354199
_cell_angle_alpha   59.99278800
_cell_angle_beta   59.99313223
_cell_angle_gamma   59.99314276
_symmetry_Int_Tables_number   1
_chemical_formula_structural   Mn2Hg2O7
_chemical_formula_sum   'Mn4 Hg4 O14'
_cell_volume   259.89962945
_cell_formula_units_Z   2
loop_
 _symmetry_equiv_pos_site_id
 _symmetry_equiv_pos_as_xyz
  1  'x, y, z'
loop_
 _atom_site_type_symbol
 _atom_site_label
 _atom_site_symmetry_multiplicity
 _atom_site_fract_x
 _atom_site_fract_y
 _atom_site_fract_z
 _atom_site_occupancy
  Mn  Mn0  1  0.000001  -0.000004  0.000004  1
  Mn  Mn1  1  0.499997  0.000006  0.999994  1
  Mn  Mn2  1  -0.000003  0.000001  0.500000  1
  Mn  Mn3  1  0.000010  0.499996  0.999998  1
  Hg  Hg4  1  0.499998  1.000000  0.500001  1
  Hg  Hg5  1  0.500001  0.500001  0.000000  1
  Hg  Hg6  1  0.999999  0.499999  0.500002  1
  Hg  Hg7  1  0.500000  0.500002  0.499998  1
  O  O8  1  0.678872  0.071114  0.071121  1
  O  O9  1  0.928914  0.321112  0.321110  1
  O  O10  1  0.071097  0.071117  0.678894  1
  O  O11  1  0.678876  0.678890  0.071104  1
  O  O12  1  0.374966  0.374996  0.375006  1
  O  O13  1  0.678871  0.071104  0.678890  1
  O  O14  1  0.071099  0.678887  0.071125  1
  O  O15  1  0.321123  0.928899  0.321109  1
  O  O16  1  0.928899  0.928880  0.321111  1
  O  O17  1  0.321131  0.321112  0.928890  1
  O  O18  1  0.625033  0.625004  0.624994  1
  O  O19  1  0.928903  0.321108  0.928878  1
  O  O20  1  0.071086  0.678890  0.678888  1
  O  O21  1  0.321124  0.928886  0.928881  1
