# generated using pymatgen
data_MnMoO4
_symmetry_space_group_name_H-M   'P 1'
_cell_length_a   7.21387775
_cell_length_b   7.21387776
_cell_length_c   7.28261651
_cell_angle_alpha   78.06566183
_cell_angle_beta   78.06566177
_cell_angle_gamma   84.46450393
_symmetry_Int_Tables_number   1
_chemical_formula_structural   MnMoO4
_chemical_formula_sum   'Mn4 Mo4 O16'
_cell_volume   362.20989570
_cell_formula_units_Z   4
loop_
 _symmetry_equiv_pos_site_id
 _symmetry_equiv_pos_as_xyz
  1  'x, y, z'
loop_
 _atom_site_type_symbol
 _atom_site_label
 _atom_site_symmetry_multiplicity
 _atom_site_fract_x
 _atom_site_fract_y
 _atom_site_fract_z
 _atom_site_occupancy
  O  O0  1  0.213019  0.516289  0.529432  1
  O  O1  1  0.483710  0.786981  0.470568  1
  O  O2  1  0.786981  0.483711  0.470568  1
  O  O3  1  0.516289  0.213020  0.529431  1
  O  O4  1  0.111372  0.804318  0.808995  1
  O  O5  1  0.195681  0.888628  0.191006  1
  O  O6  1  0.888628  0.195682  0.191006  1
  O  O7  1  0.804318  0.111372  0.808995  1
  O  O8  1  0.857928  0.857928  0.537401  1
  O  O9  1  0.142071  0.142072  0.462598  1
  O  O10  1  0.201630  0.201631  0.847687  1
  O  O11  1  0.798369  0.798369  0.152312  1
  O  O12  1  0.782989  0.492366  0.893697  1
  O  O13  1  0.217011  0.507634  0.106304  1
  O  O14  1  0.507633  0.217011  0.106304  1
  O  O15  1  0.492367  0.782989  0.893697  1
  Mn  Mn16  1  0.183286  0.816713  0.500000  1
  Mn  Mn17  1  0.816714  0.183287  0.499999  1
  Mn  Mn18  1  0.794813  0.794812  0.862301  1
  Mn  Mn19  1  0.205187  0.205187  0.137700  1
  Mo  Mo20  1  0.250902  0.749098  0.000000  1
  Mo  Mo21  1  0.749097  0.250902  0.000000  1
  Mo  Mo22  1  0.270307  0.270307  0.594042  1
  Mo  Mo23  1  0.729692  0.729692  0.405959  1
