# generated using pymatgen
data_CeReO4
_symmetry_space_group_name_H-M   'P 1'
_cell_length_a   7.68183940
_cell_length_b   5.40183400
_cell_length_c   7.59291484
_cell_angle_alpha   90.00000000
_cell_angle_beta   99.86505789
_cell_angle_gamma   90.00000000
_symmetry_Int_Tables_number   1
_chemical_formula_structural   CeReO4
_chemical_formula_sum   'Ce4 Re4 O16'
_cell_volume   310.41704394
_cell_formula_units_Z   4
loop_
 _symmetry_equiv_pos_site_id
 _symmetry_equiv_pos_as_xyz
  1  'x, y, z'
loop_
 _atom_site_type_symbol
 _atom_site_label
 _atom_site_symmetry_multiplicity
 _atom_site_fract_x
 _atom_site_fract_y
 _atom_site_fract_z
 _atom_site_occupancy
  Ce  Ce0  1  0.342108  0.720222  0.602788  1
  Ce  Ce1  1  0.342108  0.779778  0.102788  1
  Ce  Ce2  1  0.657892  0.220222  0.897212  1
  Ce  Ce3  1  0.657892  0.279778  0.397212  1
  Re  Re4  1  0.164619  0.220367  0.801369  1
  Re  Re5  1  0.164619  0.279633  0.301369  1
  Re  Re6  1  0.835381  0.720367  0.698631  1
  Re  Re7  1  0.835381  0.779633  0.198631  1
  O  O8  1  0.050043  0.915517  0.707217  1
  O  O9  1  0.050043  0.584483  0.207217  1
  O  O10  1  0.172000  0.345663  0.557921  1
  O  O11  1  0.172000  0.154337  0.057921  1
  O  O12  1  0.324442  0.507719  0.876823  1
  O  O13  1  0.392855  0.013345  0.829577  1
  O  O14  1  0.324442  0.992281  0.376823  1
  O  O15  1  0.392855  0.486655  0.329577  1
  O  O16  1  0.607145  0.513345  0.670423  1
  O  O17  1  0.675558  0.007719  0.623177  1
  O  O18  1  0.607145  0.986655  0.170423  1
  O  O19  1  0.675558  0.492281  0.123177  1
  O  O20  1  0.828000  0.845663  0.942079  1
  O  O21  1  0.828000  0.654337  0.442079  1
  O  O22  1  0.949957  0.415517  0.792783  1
  O  O23  1  0.949957  0.084483  0.292783  1
