# generated using pymatgen
data_Mn2Mo3O8
_symmetry_space_group_name_H-M   'P 1'
_cell_length_a   5.90422840
_cell_length_b   5.90422830
_cell_length_c   10.44008767
_cell_angle_alpha   90.00000000
_cell_angle_beta   90.00000000
_cell_angle_gamma   120.00000055
_symmetry_Int_Tables_number   1
_chemical_formula_structural   Mn2Mo3O8
_chemical_formula_sum   'Mn4 Mo6 O16'
_cell_volume   315.18175290
_cell_formula_units_Z   2
loop_
 _symmetry_equiv_pos_site_id
 _symmetry_equiv_pos_as_xyz
  1  'x, y, z'
loop_
 _atom_site_type_symbol
 _atom_site_label
 _atom_site_symmetry_multiplicity
 _atom_site_fract_x
 _atom_site_fract_y
 _atom_site_fract_z
 _atom_site_occupancy
  Mn  Mn0  1  0.333333  0.666667  0.950003  1
  Mn  Mn1  1  0.666667  0.333333  0.450003  1
  Mn  Mn2  1  0.333333  0.666667  0.514398  1
  Mn  Mn3  1  0.666667  0.333333  0.014398  1
  Mo  Mo4  1  0.145859  0.854141  0.249323  1
  Mo  Mo5  1  0.291718  0.145859  0.749323  1
  Mo  Mo6  1  0.854141  0.708282  0.749323  1
  Mo  Mo7  1  0.145859  0.291718  0.249323  1
  Mo  Mo8  1  0.708282  0.854141  0.249323  1
  Mo  Mo9  1  0.854141  0.145859  0.749323  1
  O  O10  1  0.000000  0.000000  0.388037  1
  O  O11  1  0.000000  0.000000  0.888037  1
  O  O12  1  0.333333  0.666667  0.147794  1
  O  O13  1  0.666667  0.333333  0.647794  1
  O  O14  1  0.486952  0.513048  0.358714  1
  O  O15  1  0.973904  0.486952  0.858714  1
  O  O16  1  0.513048  0.026096  0.858714  1
  O  O17  1  0.486952  0.973904  0.358714  1
  O  O18  1  0.026096  0.513048  0.358714  1
  O  O19  1  0.513048  0.486952  0.858714  1
  O  O20  1  0.164669  0.835331  0.635219  1
  O  O21  1  0.329337  0.164669  0.135219  1
  O  O22  1  0.835331  0.670663  0.135219  1
  O  O23  1  0.164669  0.329337  0.635219  1
  O  O24  1  0.670663  0.835331  0.635219  1
  O  O25  1  0.835331  0.164669  0.135219  1
