# generated using pymatgen
data_MnNb2O6
_symmetry_space_group_name_H-M   'P 1'
_cell_length_a   5.14827721
_cell_length_b   5.89677435
_cell_length_c   14.65101602
_cell_angle_alpha   90.00000000
_cell_angle_beta   90.00000000
_cell_angle_gamma   90.00000000
_symmetry_Int_Tables_number   1
_chemical_formula_structural   MnNb2O6
_chemical_formula_sum   'Mn4 Nb8 O24'
_cell_volume   444.77889940
_cell_formula_units_Z   4
loop_
 _symmetry_equiv_pos_site_id
 _symmetry_equiv_pos_as_xyz
  1  'x, y, z'
loop_
 _atom_site_type_symbol
 _atom_site_label
 _atom_site_symmetry_multiplicity
 _atom_site_fract_x
 _atom_site_fract_y
 _atom_site_fract_z
 _atom_site_occupancy
  O  O0  1  0.912408  0.371143  0.255380  1
  O  O1  1  0.412408  0.128857  0.244620  1
  O  O2  1  0.587592  0.371143  0.744620  1
  O  O3  1  0.087592  0.128857  0.755380  1
  O  O4  1  0.087592  0.628857  0.744620  1
  O  O5  1  0.587592  0.871143  0.755380  1
  O  O6  1  0.412408  0.628857  0.255380  1
  O  O7  1  0.912408  0.871143  0.244620  1
  O  O8  1  0.904448  0.381977  0.918771  1
  O  O9  1  0.404448  0.118023  0.581229  1
  O  O10  1  0.595552  0.381977  0.081229  1
  O  O11  1  0.095552  0.118023  0.418771  1
  O  O12  1  0.939112  0.899866  0.900964  1
  O  O13  1  0.439112  0.600134  0.599036  1
  O  O14  1  0.560888  0.899866  0.099036  1
  O  O15  1  0.060888  0.600134  0.400964  1
  O  O16  1  0.060888  0.100134  0.099036  1
  O  O17  1  0.560888  0.399866  0.400964  1
  O  O18  1  0.439112  0.100134  0.900964  1
  O  O19  1  0.939112  0.399866  0.599036  1
  O  O20  1  0.904448  0.881977  0.581229  1
  O  O21  1  0.404448  0.618023  0.918771  1
  O  O22  1  0.595552  0.881977  0.418771  1
  O  O23  1  0.095552  0.618023  0.081229  1
  Mn  Mn24  1  0.750000  0.676439  0.000000  1
  Mn  Mn25  1  0.250000  0.823561  0.500000  1
  Mn  Mn26  1  0.250000  0.323561  0.000000  1
  Mn  Mn27  1  0.750000  0.176439  0.500000  1
  Nb  Nb28  1  0.240967  0.818576  0.162203  1
  Nb  Nb29  1  0.740967  0.681424  0.337797  1
  Nb  Nb30  1  0.259033  0.818576  0.837797  1
  Nb  Nb31  1  0.759033  0.681424  0.662203  1
  Nb  Nb32  1  0.240967  0.318576  0.337797  1
  Nb  Nb33  1  0.740967  0.181424  0.162203  1
  Nb  Nb34  1  0.259033  0.318576  0.662203  1
  Nb  Nb35  1  0.759033  0.181424  0.837797  1
