# generated using pymatgen
data_Mn2NiO4
_symmetry_space_group_name_H-M   'P 1'
_cell_length_a   6.02148478
_cell_length_b   6.02148478
_cell_length_c   6.02148478
_cell_angle_alpha   60.00000002
_cell_angle_beta   60.00000001
_cell_angle_gamma   60.00000002
_symmetry_Int_Tables_number   1
_chemical_formula_structural   Mn2NiO4
_chemical_formula_sum   'Mn4 Ni2 O8'
_cell_volume   154.38168675
_cell_formula_units_Z   2
loop_
 _symmetry_equiv_pos_site_id
 _symmetry_equiv_pos_as_xyz
  1  'x, y, z'
loop_
 _atom_site_type_symbol
 _atom_site_label
 _atom_site_symmetry_multiplicity
 _atom_site_fract_x
 _atom_site_fract_y
 _atom_site_fract_z
 _atom_site_occupancy
  O  O0  1  0.744341  0.744340  0.744342  1
  O  O1  1  0.255660  0.255658  0.733023  1
  O  O2  1  0.255659  0.733022  0.255659  1
  O  O3  1  0.733024  0.255658  0.255658  1
  O  O4  1  0.744341  0.266978  0.744340  1
  O  O5  1  0.266977  0.744340  0.744341  1
  O  O6  1  0.255660  0.255658  0.255659  1
  O  O7  1  0.744341  0.744340  0.266977  1
  Mn  Mn8  1  0.500000  0.000000  0.499999  1
  Mn  Mn9  1  0.999999  0.500000  0.500000  1
  Mn  Mn10  1  0.499999  0.500000  0.000000  1
  Mn  Mn11  1  0.499999  0.500000  0.500001  1
  Ni  Ni12  1  0.125000  0.124999  0.125000  1
  Ni  Ni13  1  0.875000  0.874999  0.875000  1
