# generated using pymatgen
data_Mn2NiO4
_symmetry_space_group_name_H-M   'P 1'
_cell_length_a   6.04265468
_cell_length_b   6.04265421
_cell_length_c   6.00405208
_cell_angle_alpha   60.21110504
_cell_angle_beta   60.21110281
_cell_angle_gamma   59.92954419
_symmetry_Int_Tables_number   1
_chemical_formula_structural   Mn2NiO4
_chemical_formula_sum   'Mn4 Ni2 O8'
_cell_volume   155.42831744
_cell_formula_units_Z   2
loop_
 _symmetry_equiv_pos_site_id
 _symmetry_equiv_pos_as_xyz
  1  'x, y, z'
loop_
 _atom_site_type_symbol
 _atom_site_label
 _atom_site_symmetry_multiplicity
 _atom_site_fract_x
 _atom_site_fract_y
 _atom_site_fract_z
 _atom_site_occupancy
  Mn  Mn0  1  0.991316  0.991316  0.008684  1
  Mn  Mn1  1  0.258684  0.258684  0.241316  1
  Mn  Mn2  1  0.625000  0.625000  0.125000  1
  Mn  Mn3  1  0.625000  0.625000  0.625000  1
  Ni  Ni4  1  0.125000  0.625000  0.625000  1
  Ni  Ni5  1  0.625000  0.125000  0.625000  1
  O  O6  1  0.398975  0.398975  0.370124  1
  O  O7  1  0.404670  0.840385  0.377473  1
  O  O8  1  0.398975  0.398975  0.831927  1
  O  O9  1  0.840385  0.404670  0.377473  1
  O  O10  1  0.409615  0.845330  0.872527  1
  O  O11  1  0.851025  0.851025  0.418073  1
  O  O12  1  0.845330  0.409615  0.872527  1
  O  O13  1  0.851025  0.851025  0.879876  1
