# generated using pymatgen
data_Mn2TcO4
_symmetry_space_group_name_H-M   'P 1'
_cell_length_a   6.28379183
_cell_length_b   6.20944558
_cell_length_c   6.28379218
_cell_angle_alpha   60.39060919
_cell_angle_beta   59.73270982
_cell_angle_gamma   60.39060795
_symmetry_Int_Tables_number   1
_chemical_formula_structural   Mn2TcO4
_chemical_formula_sum   'Mn4 Tc2 O8'
_cell_volume   174.03048369
_cell_formula_units_Z   2
loop_
 _symmetry_equiv_pos_site_id
 _symmetry_equiv_pos_as_xyz
  1  'x, y, z'
loop_
 _atom_site_type_symbol
 _atom_site_label
 _atom_site_symmetry_multiplicity
 _atom_site_fract_x
 _atom_site_fract_y
 _atom_site_fract_z
 _atom_site_occupancy
  Mn  Mn0  1  0.013646  0.986354  0.013646  1
  Mn  Mn1  1  0.236354  0.263646  0.236354  1
  Mn  Mn2  1  0.625000  0.125000  0.625000  1
  Mn  Mn3  1  0.625000  0.625000  0.625000  1
  O  O4  1  0.370929  0.408774  0.370929  1
  O  O5  1  0.370929  0.849369  0.370929  1
  O  O6  1  0.367660  0.398013  0.836314  1
  O  O7  1  0.836314  0.398013  0.367660  1
  O  O8  1  0.413686  0.851987  0.882340  1
  O  O9  1  0.882340  0.851987  0.413686  1
  O  O10  1  0.879071  0.400631  0.879071  1
  O  O11  1  0.879071  0.841226  0.879071  1
  Tc  Tc12  1  0.125000  0.625000  0.625000  1
  Tc  Tc13  1  0.625000  0.625000  0.125000  1
