# generated using pymatgen
data_Mn2VO4
_symmetry_space_group_name_H-M   'P 1'
_cell_length_a   6.14394782
_cell_length_b   6.14394782
_cell_length_c   6.18119235
_cell_angle_alpha   60.19911371
_cell_angle_beta   90.00000000
_cell_angle_gamma   120.00000000
_symmetry_Int_Tables_number   1
_chemical_formula_structural   Mn2VO4
_chemical_formula_sum   'Mn4 V2 O8'
_cell_volume   165.48278351
_cell_formula_units_Z   2
loop_
 _symmetry_equiv_pos_site_id
 _symmetry_equiv_pos_as_xyz
  1  'x, y, z'
loop_
 _atom_site_type_symbol
 _atom_site_label
 _atom_site_symmetry_multiplicity
 _atom_site_fract_x
 _atom_site_fract_y
 _atom_site_fract_z
 _atom_site_occupancy
  Mn  Mn0  1  0.623291  0.246582  0.626754  1
  Mn  Mn1  1  0.254908  0.509816  0.235276  1
  Mn  Mn2  1  0.623291  0.749955  0.626754  1
  Mn  Mn3  1  0.126664  0.749955  0.626754  1
  V  V4  1  0.621278  0.242555  0.136167  1
  V  V5  1  0.994207  0.988414  0.017380  1
  O  O6  1  0.846270  0.245268  0.355733  1
  O  O7  1  0.398998  0.245268  0.355733  1
  O  O8  1  0.866832  0.733665  0.399503  1
  O  O9  1  0.861478  0.245761  0.892761  1
  O  O10  1  0.861478  0.722955  0.892761  1
  O  O11  1  0.384284  0.245761  0.892761  1
  O  O12  1  0.398998  0.797997  0.355733  1
  O  O13  1  0.388023  0.776045  0.835932  1
