# generated using pymatgen
data_Mn2ZnO4
_symmetry_space_group_name_H-M   'P 1'
_cell_length_a   5.81833697
_cell_length_b   5.81833697
_cell_length_c   6.24897307
_cell_angle_alpha   117.74539348
_cell_angle_beta   117.74539348
_cell_angle_gamma   90.00000000
_symmetry_Int_Tables_number   1
_chemical_formula_structural   Mn2ZnO4
_chemical_formula_sum   'Mn4 Zn2 O8'
_cell_volume   159.22864597
_cell_formula_units_Z   2
loop_
 _symmetry_equiv_pos_site_id
 _symmetry_equiv_pos_as_xyz
  1  'x, y, z'
loop_
 _atom_site_type_symbol
 _atom_site_label
 _atom_site_symmetry_multiplicity
 _atom_site_fract_x
 _atom_site_fract_y
 _atom_site_fract_z
 _atom_site_occupancy
  Mn  Mn0  1  0.875000  0.625000  0.250000  1
  Mn  Mn1  1  0.375000  0.625000  0.250000  1
  Mn  Mn2  1  0.375000  0.625000  0.750000  1
  Mn  Mn3  1  0.375000  0.125000  0.750000  1
  Zn  Zn4  1  0.750000  0.250000  0.500000  1
  Zn  Zn5  1  -0.000000  0.000000  0.000000  1
  O  O6  1  0.140781  0.868345  0.736691  1
  O  O7  1  0.595910  0.868345  0.736691  1
  O  O8  1  0.154090  0.381655  0.763309  1
  O  O9  1  0.609219  0.381655  0.763309  1
  O  O10  1  0.131655  0.404090  0.263309  1
  O  O11  1  0.131655  0.859219  0.263309  1
  O  O12  1  0.618345  0.390781  0.236691  1
  O  O13  1  0.618345  0.845910  0.236691  1
