# generated using pymatgen
data_Mn5Cr2O12
_symmetry_space_group_name_H-M   'P 1'
_cell_length_a   5.17274574
_cell_length_b   5.17274562
_cell_length_c   9.92311120
_cell_angle_alpha   82.54025961
_cell_angle_beta   97.45974338
_cell_angle_gamma   58.25659899
_symmetry_Int_Tables_number   1
_chemical_formula_structural   Mn5Cr2O12
_chemical_formula_sum   'Mn5 Cr2 O12'
_cell_volume   217.61828565
_cell_formula_units_Z   1
loop_
 _symmetry_equiv_pos_site_id
 _symmetry_equiv_pos_as_xyz
  1  'x, y, z'
loop_
 _atom_site_type_symbol
 _atom_site_label
 _atom_site_symmetry_multiplicity
 _atom_site_fract_x
 _atom_site_fract_y
 _atom_site_fract_z
 _atom_site_occupancy
  Mn  Mn0  1  0.076010  0.076010  0.250000  1
  Mn  Mn1  1  0.002884  0.545445  0.978675  1
  Mn  Mn2  1  0.545445  0.002884  0.521325  1
  Mn  Mn3  1  0.417789  0.417789  0.250000  1
  Mn  Mn4  1  0.570149  0.570149  0.750000  1
  Cr  Cr5  1  0.253199  0.253199  0.750000  1
  Cr  Cr6  1  0.746017  0.746017  0.250000  1
  O  O7  1  0.971768  0.263329  0.875596  1
  O  O8  1  0.263329  0.971768  0.624404  1
  O  O9  1  0.169431  0.350595  0.361433  1
  O  O10  1  0.350595  0.169431  0.138567  1
  O  O11  1  0.307077  0.506469  0.853153  1
  O  O12  1  0.506469  0.307077  0.646847  1
  O  O13  1  0.457781  0.702937  0.350082  1
  O  O14  1  0.702937  0.457781  0.149918  1
  O  O15  1  0.588238  0.845217  0.865735  1
  O  O16  1  0.845217  0.588238  0.634265  1
  O  O17  1  0.775031  0.029214  0.364384  1
  O  O18  1  0.029214  0.775031  0.135616  1
