# generated using pymatgen
data_Mn3Fe5O12
_symmetry_space_group_name_H-M   'P 1'
_cell_length_a   8.24588738
_cell_length_b   8.33134465
_cell_length_c   8.26383687
_cell_angle_alpha   109.72184710
_cell_angle_beta   109.40086679
_cell_angle_gamma   108.81272572
_symmetry_Int_Tables_number   1
_chemical_formula_structural   Mn3Fe5O12
_chemical_formula_sum   'Mn6 Fe10 O24'
_cell_volume   439.57012833
_cell_formula_units_Z   2
loop_
 _symmetry_equiv_pos_site_id
 _symmetry_equiv_pos_as_xyz
  1  'x, y, z'
loop_
 _atom_site_type_symbol
 _atom_site_label
 _atom_site_symmetry_multiplicity
 _atom_site_fract_x
 _atom_site_fract_y
 _atom_site_fract_z
 _atom_site_occupancy
  Mn  Mn0  1  0.783021  0.249600  0.035667  1
  Mn  Mn1  1  0.000162  0.003569  0.003817  1
  Mn  Mn2  1  0.501558  0.501619  0.003349  1
  Mn  Mn3  1  0.527784  0.281259  0.252689  1
  Mn  Mn4  1  0.502009  0.998397  0.499560  1
  Mn  Mn5  1  0.969099  0.221422  0.751543  1
  Fe  Fe6  1  0.747691  0.957027  0.209908  1
  Fe  Fe7  1  0.752023  0.465639  0.713692  1
  Fe  Fe8  1  0.288375  0.249903  0.538090  1
  Fe  Fe9  1  0.712904  0.750673  0.463054  1
  Fe  Fe10  1  0.251098  0.541822  0.289805  1
  Fe  Fe11  1  0.249125  0.037105  0.787522  1
  Fe  Fe12  1  0.998397  0.497016  0.494522  1
  Fe  Fe13  1  0.042306  0.790254  0.251141  1
  Fe  Fe14  1  0.460736  0.708754  0.748209  1
  Fe  Fe15  1  0.210553  0.749230  0.958927  1
  O  O16  1  0.785130  0.223718  0.266878  1
  O  O17  1  0.536971  0.257647  0.997020  1
  O  O18  1  0.270750  0.045962  0.051724  1
  O  O19  1  0.782983  0.734878  0.226614  1
  O  O20  1  0.009392  0.459758  0.736396  1
  O  O21  1  0.495248  0.230565  0.456533  1
  O  O22  1  0.744466  0.246407  0.787673  1
  O  O23  1  0.051465  0.048103  0.269458  1
  O  O24  1  0.763888  0.529607  0.495761  1
  O  O25  1  0.043145  0.264540  0.065927  1
  O  O26  1  0.441018  0.497411  0.207523  1
  O  O27  1  0.279724  0.000163  0.545624  1
  O  O28  1  0.547157  0.497023  0.782015  1
  O  O29  1  0.951899  0.736551  0.946405  1
  O  O30  1  0.713811  0.003695  0.447155  1
  O  O31  1  0.261680  0.757543  0.211994  1
  O  O32  1  0.232127  0.453214  0.501431  1
  O  O33  1  0.962472  0.969127  0.744288  1
  O  O34  1  0.489987  0.772663  0.547526  1
  O  O35  1  0.216131  0.261599  0.755162  1
  O  O36  1  0.007025  0.557448  0.282271  1
  O  O37  1  0.733611  0.934983  0.945460  1
  O  O38  1  0.459204  0.740148  0.002690  1
  O  O39  1  0.223876  0.773951  0.724974  1
