# generated using pymatgen
data_Mn3V2O8
_symmetry_space_group_name_H-M   'P 1'
_cell_length_a   6.32940402
_cell_length_b   6.75213487
_cell_length_c   8.62032108
_cell_angle_alpha   90.00000000
_cell_angle_beta   90.00000000
_cell_angle_gamma   117.94971703
_symmetry_Int_Tables_number   1
_chemical_formula_structural   Mn3V2O8
_chemical_formula_sum   'Mn6 V4 O16'
_cell_volume   325.43535802
_cell_formula_units_Z   2
loop_
 _symmetry_equiv_pos_site_id
 _symmetry_equiv_pos_as_xyz
  1  'x, y, z'
loop_
 _atom_site_type_symbol
 _atom_site_label
 _atom_site_symmetry_multiplicity
 _atom_site_fract_x
 _atom_site_fract_y
 _atom_site_fract_z
 _atom_site_occupancy
  O  O0  1  0.107350  0.766860  0.501455  1
  O  O1  1  0.340491  0.233140  0.498544  1
  O  O2  1  0.392651  0.233140  0.001456  1
  O  O3  1  0.159509  0.766860  0.998544  1
  O  O4  1  0.892650  0.233140  0.498544  1
  O  O5  1  0.659511  0.766860  0.501455  1
  O  O6  1  0.607351  0.766860  0.998544  1
  O  O7  1  0.840490  0.233140  0.001456  1
  O  O8  1  0.499470  0.998939  0.748765  1
  O  O9  1  0.500530  0.001061  0.251236  1
  O  O10  1  0.253907  0.507814  0.778050  1
  O  O11  1  0.746093  0.492187  0.221950  1
  O  O12  1  0.246093  0.492187  0.278051  1
  O  O13  1  0.000531  0.001061  0.248764  1
  O  O14  1  0.999469  0.998939  0.751236  1
  O  O15  1  0.753907  0.507814  0.721950  1
  V  V16  1  0.880521  0.761042  0.618315  1
  V  V17  1  0.119479  0.238959  0.381684  1
  V  V18  1  0.619479  0.238959  0.118316  1
  V  V19  1  0.380521  0.761042  0.881684  1
  Mn  Mn20  1  0.111991  0.723982  0.250000  1
  Mn  Mn21  1  0.388009  0.276019  0.750000  1
  Mn  Mn22  1  0.611991  0.723982  0.250000  1
  Mn  Mn23  1  0.888009  0.276019  0.750000  1
  Mn  Mn24  1  0.500000  0.000000  0.500000  1
  Mn  Mn25  1  0.000000  0.000000  0.000000  1
