# generated using pymatgen
data_Mn2Cr3O12
_symmetry_space_group_name_H-M   'P 1'
_cell_length_a   12.36500733
_cell_length_b   9.05072886
_cell_length_c   9.19082870
_cell_angle_alpha   90.00000000
_cell_angle_beta   90.00000000
_cell_angle_gamma   90.00000000
_symmetry_Int_Tables_number   1
_chemical_formula_structural   Mn2Cr3O12
_chemical_formula_sum   'Mn8 Cr12 O48'
_cell_volume   1028.56704246
_cell_formula_units_Z   4
loop_
 _symmetry_equiv_pos_site_id
 _symmetry_equiv_pos_as_xyz
  1  'x, y, z'
loop_
 _atom_site_type_symbol
 _atom_site_label
 _atom_site_symmetry_multiplicity
 _atom_site_fract_x
 _atom_site_fract_y
 _atom_site_fract_z
 _atom_site_occupancy
  Mn  Mn0  1  0.119429  0.248467  0.969224  1
  Mn  Mn1  1  0.119429  0.751533  0.469224  1
  Mn  Mn2  1  0.380571  0.748467  0.969224  1
  Mn  Mn3  1  0.380571  0.251533  0.469224  1
  Mn  Mn4  1  0.619429  0.251533  0.030776  1
  Mn  Mn5  1  0.619429  0.748467  0.530776  1
  Mn  Mn6  1  0.880571  0.248467  0.530776  1
  Mn  Mn7  1  0.880571  0.751533  0.030776  1
  Cr  Cr8  1  0.000000  0.472942  0.250000  1
  Cr  Cr9  1  0.000000  0.527058  0.750000  1
  Cr  Cr10  1  0.146352  0.098300  0.601418  1
  Cr  Cr11  1  0.146352  0.901700  0.101418  1
  Cr  Cr12  1  0.353648  0.401700  0.101418  1
  Cr  Cr13  1  0.353648  0.598300  0.601418  1
  Cr  Cr14  1  0.500000  0.027058  0.750000  1
  Cr  Cr15  1  0.500000  0.972942  0.250000  1
  Cr  Cr16  1  0.646352  0.401700  0.398582  1
  Cr  Cr17  1  0.646352  0.598300  0.898582  1
  Cr  Cr18  1  0.853648  0.098300  0.898582  1
  Cr  Cr19  1  0.853648  0.901700  0.398582  1
  O  O20  1  0.020440  0.148573  0.559683  1
  O  O21  1  0.020440  0.851427  0.059683  1
  O  O22  1  0.070340  0.578184  0.367323  1
  O  O23  1  0.070340  0.421816  0.867323  1
  O  O24  1  0.084795  0.365988  0.161417  1
  O  O25  1  0.084795  0.634012  0.661417  1
  O  O26  1  0.161464  0.087190  0.093287  1
  O  O27  1  0.161464  0.912810  0.593287  1
  O  O28  1  0.174879  0.149627  0.767646  1
  O  O29  1  0.174879  0.850373  0.267646  1
  O  O30  1  0.230203  0.823557  0.981610  1
  O  O31  1  0.230203  0.176443  0.481610  1
  O  O32  1  0.269797  0.323557  0.981610  1
  O  O33  1  0.269797  0.676443  0.481610  1
  O  O34  1  0.325121  0.649627  0.767646  1
  O  O35  1  0.325121  0.350373  0.267646  1
  O  O36  1  0.338536  0.412810  0.593287  1
  O  O37  1  0.338536  0.587190  0.093287  1
  O  O38  1  0.415205  0.134012  0.661417  1
  O  O39  1  0.415205  0.865988  0.161417  1
  O  O40  1  0.429660  0.078184  0.367323  1
  O  O41  1  0.429660  0.921816  0.867323  1
  O  O42  1  0.479560  0.648573  0.559683  1
  O  O43  1  0.479560  0.351427  0.059683  1
  O  O44  1  0.520440  0.351427  0.440317  1
  O  O45  1  0.520440  0.648573  0.940317  1
  O  O46  1  0.570340  0.078184  0.132677  1
  O  O47  1  0.570340  0.921816  0.632677  1
  O  O48  1  0.584795  0.134012  0.838583  1
  O  O49  1  0.584795  0.865988  0.338583  1
  O  O50  1  0.661464  0.412810  0.906713  1
  O  O51  1  0.661464  0.587190  0.406713  1
  O  O52  1  0.674879  0.350373  0.232354  1
  O  O53  1  0.674879  0.649627  0.732354  1
  O  O54  1  0.730203  0.323557  0.518390  1
  O  O55  1  0.730203  0.676443  0.018390  1
  O  O56  1  0.769797  0.176443  0.018390  1
  O  O57  1  0.769797  0.823557  0.518390  1
  O  O58  1  0.825121  0.149627  0.732354  1
  O  O59  1  0.825121  0.850373  0.232354  1
  O  O60  1  0.838536  0.087190  0.406713  1
  O  O61  1  0.838536  0.912810  0.906713  1
  O  O62  1  0.915205  0.365988  0.338583  1
  O  O63  1  0.915205  0.634012  0.838583  1
  O  O64  1  0.929660  0.421816  0.632677  1
  O  O65  1  0.929660  0.578184  0.132677  1
  O  O66  1  0.979560  0.148573  0.940317  1
  O  O67  1  0.979560  0.851427  0.440317  1
