# generated using pymatgen
data_MnFeO3
_symmetry_space_group_name_H-M   'P 1'
_cell_length_a   8.26695799
_cell_length_b   8.38660209
_cell_length_c   8.26158862
_cell_angle_alpha   109.26888257
_cell_angle_beta   109.34927012
_cell_angle_gamma   110.24933781
_symmetry_Int_Tables_number   1
_chemical_formula_structural   MnFeO3
_chemical_formula_sum   'Mn8 Fe8 O24'
_cell_volume   438.41716159
_cell_formula_units_Z   8
loop_
 _symmetry_equiv_pos_site_id
 _symmetry_equiv_pos_as_xyz
  1  'x, y, z'
loop_
 _atom_site_type_symbol
 _atom_site_label
 _atom_site_symmetry_multiplicity
 _atom_site_fract_x
 _atom_site_fract_y
 _atom_site_fract_z
 _atom_site_occupancy
  Mn  Mn0  1  0.503384  0.006959  0.001937  1
  Mn  Mn1  1  0.971324  0.250784  0.219437  1
  Mn  Mn2  1  0.779731  0.030545  0.750193  1
  Mn  Mn3  1  0.749772  0.780185  0.030212  1
  Mn  Mn4  1  0.746588  0.279617  0.532903  1
  Mn  Mn5  1  0.007093  0.499747  0.999100  1
  Mn  Mn6  1  0.532871  0.742307  0.276458  1
  Mn  Mn7  1  0.498146  0.496888  0.498900  1
  Fe  Fe8  1  0.715293  0.464518  0.253410  1
  Fe  Fe9  1  0.458807  0.252809  0.711543  1
  Fe  Fe10  1  0.996979  0.999018  0.502535  1
  Fe  Fe11  1  0.250783  0.713040  0.460096  1
  Fe  Fe12  1  0.249959  0.207712  0.958237  1
  Fe  Fe13  1  0.211145  0.965638  0.249176  1
  Fe  Fe14  1  0.289537  0.540005  0.753390  1
  Fe  Fe15  1  0.039873  0.749249  0.789029  1
  O  O16  1  0.996019  0.044980  0.268170  1
  O  O17  1  0.970458  0.494656  0.221734  1
  O  O18  1  0.956213  0.742044  0.999561  1
  O  O19  1  0.778578  0.054533  0.513762  1
  O  O20  1  0.727094  0.225033  0.279334  1
  O  O21  1  0.434945  0.440029  0.234950  1
  O  O22  1  0.770132  0.732405  0.285176  1
  O  O23  1  0.431912  0.234934  0.446934  1
  O  O24  1  0.722903  0.014030  0.957538  1
  O  O25  1  0.763323  0.539373  0.560822  1
  O  O26  1  0.724754  0.288071  0.768199  1
  O  O27  1  0.503052  0.756990  0.038631  1
  O  O28  1  0.230725  0.453934  0.461598  1
  O  O29  1  0.282945  0.741100  0.229603  1
  O  O30  1  0.496509  0.234021  0.947898  1
  O  O31  1  0.542905  0.764179  0.542100  1
  O  O32  1  0.284875  0.999485  0.049021  1
  O  O33  1  0.223815  0.275963  0.726433  1
  O  O34  1  0.547909  0.547930  0.767862  1
  O  O35  1  0.037631  0.253538  0.978776  1
  O  O36  1  0.271624  0.769335  0.722055  1
  O  O37  1  0.229962  0.955103  0.498044  1
  O  O38  1  0.062652  0.516345  0.793061  1
  O  O39  1  0.007779  0.942969  0.722182  1
