# generated using pymatgen
data_Mn2NiO4
_symmetry_space_group_name_H-M   'P 1'
_cell_length_a   6.00117045
_cell_length_b   6.00117017
_cell_length_c   11.99462829
_cell_angle_alpha   91.10958368
_cell_angle_beta   119.76875416
_cell_angle_gamma   118.97750135
_symmetry_Int_Tables_number   1
_chemical_formula_structural   Mn2NiO4
_chemical_formula_sum   'Mn8 Ni4 O16'
_cell_volume   308.21620291
_cell_formula_units_Z   4
loop_
 _symmetry_equiv_pos_site_id
 _symmetry_equiv_pos_as_xyz
  1  'x, y, z'
loop_
 _atom_site_type_symbol
 _atom_site_label
 _atom_site_symmetry_multiplicity
 _atom_site_fract_x
 _atom_site_fract_y
 _atom_site_fract_z
 _atom_site_occupancy
  Mn  Mn0  1  0.256687  0.619201  0.687944  1
  Mn  Mn1  1  0.993831  0.998530  0.499475  1
  Mn  Mn2  1  0.000542  0.996265  0.248403  1
  Mn  Mn3  1  0.500420  0.505119  0.499475  1
  Mn  Mn4  1  0.743607  0.383274  0.813440  1
  Mn  Mn5  1  0.003772  0.000717  0.000112  1
  Mn  Mn6  1  0.499508  0.496452  0.000112  1
  Mn  Mn7  1  0.746913  0.380629  0.313771  1
  Ni  Ni8  1  0.255930  0.612848  0.184389  1
  Ni  Ni9  1  0.498596  0.999075  0.498835  1
  Ni  Ni10  1  -0.000077  0.001668  0.750795  1
  Ni  Ni11  1  0.499603  0.001222  0.000412  1
  O  O12  1  0.021799  0.796126  0.887043  1
  O  O13  1  0.024416  0.249147  0.886782  1
  O  O14  1  0.012770  0.795328  0.376818  1
  O  O15  1  0.541602  0.754951  0.898276  1
  O  O16  1  0.477959  0.252286  0.887043  1
  O  O17  1  0.022781  0.237799  0.380290  1
  O  O18  1  0.515328  0.748727  0.611683  1
  O  O19  1  0.528226  0.750303  0.389265  1
  O  O20  1  0.457511  0.247794  0.602653  1
  O  O21  1  0.458308  0.240866  0.376818  1
  O  O22  1  0.970610  0.749156  0.609883  1
  O  O23  1  0.545339  0.763617  0.125646  1
  O  O24  1  0.466929  0.247453  0.107191  1
  O  O25  1  0.974638  0.208038  0.611683  1
  O  O26  1  0.994777  0.757455  0.126116  1
  O  O27  1  0.987676  0.205953  0.125646  1
