# generated using pymatgen
data_Mn3Au
_symmetry_space_group_name_H-M   'P 1'
_cell_length_a   4.41924010
_cell_length_b   4.41921794
_cell_length_c   9.28129279
_cell_angle_alpha   90.00003717
_cell_angle_beta   89.99999608
_cell_angle_gamma   89.99987009
_symmetry_Int_Tables_number   1
_chemical_formula_structural   Mn3Au
_chemical_formula_sum   'Mn9 Au3'
_cell_volume   181.25979767
_cell_formula_units_Z   3
loop_
 _symmetry_equiv_pos_site_id
 _symmetry_equiv_pos_as_xyz
  1  'x, y, z'
loop_
 _atom_site_type_symbol
 _atom_site_label
 _atom_site_symmetry_multiplicity
 _atom_site_fract_x
 _atom_site_fract_y
 _atom_site_fract_z
 _atom_site_occupancy
  Mn  Mn0  1  0.499996  0.500002  0.677727  1
  Mn  Mn1  1  0.500002  0.499998  0.322511  1
  Mn  Mn2  1  0.500004  0.999998  0.164580  1
  Mn  Mn3  1  0.000004  0.500000  0.164568  1
  Mn  Mn4  1  -0.000003  -0.000005  0.327599  1
  Mn  Mn5  1  0.500000  0.000002  0.835368  1
  Mn  Mn6  1  0.999997  0.999996  0.672473  1
  Mn  Mn7  1  0.499998  0.500004  0.999656  1
  Mn  Mn8  1  0.999997  0.500001  0.835360  1
  Au  Au9  1  0.500000  0.000001  0.500103  1
  Au  Au10  1  0.000002  0.999999  0.999966  1
  Au  Au11  1  0.000001  0.500002  0.500090  1
