# generated using pymatgen
data_Mn9Au31
_symmetry_space_group_name_H-M   'P 1'
_cell_length_a   4.02270651
_cell_length_b   12.93632495
_cell_length_c   12.93632495
_cell_angle_alpha   90.00000000
_cell_angle_beta   90.00000000
_cell_angle_gamma   90.00000000
_symmetry_Int_Tables_number   1
_chemical_formula_structural   Mn9Au31
_chemical_formula_sum   'Mn9 Au31'
_cell_volume   673.19391331
_cell_formula_units_Z   1
loop_
 _symmetry_equiv_pos_site_id
 _symmetry_equiv_pos_as_xyz
  1  'x, y, z'
loop_
 _atom_site_type_symbol
 _atom_site_label
 _atom_site_symmetry_multiplicity
 _atom_site_fract_x
 _atom_site_fract_y
 _atom_site_fract_z
 _atom_site_occupancy
  Mn  Mn0  1  0.500000  0.949653  0.649703  1
  Mn  Mn1  1  0.500000  0.350297  0.949653  1
  Mn  Mn2  1  0.500000  0.649703  0.050347  1
  Mn  Mn3  1  0.500000  0.050347  0.350297  1
  Mn  Mn4  1  0.000000  0.601982  0.702361  1
  Mn  Mn5  1  0.000000  0.297639  0.601982  1
  Mn  Mn6  1  0.000000  0.702361  0.398018  1
  Mn  Mn7  1  0.000000  0.398018  0.297639  1
  Mn  Mn8  1  0.000000  0.000000  0.000000  1
  Au  Au9  1  0.000000  0.098564  0.697328  1
  Au  Au10  1  0.000000  0.697328  0.901436  1
  Au  Au11  1  0.000000  0.199765  0.400247  1
  Au  Au12  1  0.000000  0.599753  0.199765  1
  Au  Au13  1  0.000000  0.400247  0.800235  1
  Au  Au14  1  0.000000  0.800235  0.599753  1
  Au  Au15  1  0.500000  0.148337  0.046309  1
  Au  Au16  1  0.500000  0.953691  0.148337  1
  Au  Au17  1  0.500000  0.046309  0.851663  1
  Au  Au18  1  0.500000  0.851663  0.953691  1
  Au  Au19  1  0.500000  0.252576  0.253824  1
  Au  Au20  1  0.500000  0.746176  0.252576  1
  Au  Au21  1  0.500000  0.253824  0.747424  1
  Au  Au22  1  0.500000  0.747424  0.746176  1
  Au  Au23  1  0.500000  0.449775  0.150127  1
  Au  Au24  1  0.500000  0.849873  0.449775  1
  Au  Au25  1  0.500000  0.150127  0.550225  1
  Au  Au26  1  0.500000  0.550225  0.849873  1
  Au  Au27  1  0.500000  0.350245  0.453039  1
  Au  Au28  1  0.500000  0.546961  0.350245  1
  Au  Au29  1  0.500000  0.453039  0.649755  1
  Au  Au30  1  0.500000  0.649755  0.546961  1
  Au  Au31  1  0.000000  0.901436  0.302672  1
  Au  Au32  1  0.000000  0.302672  0.098564  1
  Au  Au33  1  0.000000  0.902284  0.797107  1
  Au  Au34  1  0.000000  0.202893  0.902284  1
  Au  Au35  1  0.000000  0.797107  0.097716  1
  Au  Au36  1  0.000000  0.097716  0.202893  1
  Au  Au37  1  0.000000  0.500000  0.000000  1
  Au  Au38  1  0.000000  0.000000  0.500000  1
  Au  Au39  1  0.000000  0.500000  0.500000  1
