# generated using pymatgen
data_Mn9(FeO6)4
_symmetry_space_group_name_H-M   'P 1'
_cell_length_a   5.91050642
_cell_length_b   5.89657587
_cell_length_c   13.13655324
_cell_angle_alpha   102.67945046
_cell_angle_beta   102.85641020
_cell_angle_gamma   90.17707213
_symmetry_Int_Tables_number   1
_chemical_formula_structural   Mn9(FeO6)4
_chemical_formula_sum   'Mn9 Fe4 O24'
_cell_volume   434.81975332
_cell_formula_units_Z   1
loop_
 _symmetry_equiv_pos_site_id
 _symmetry_equiv_pos_as_xyz
  1  'x, y, z'
loop_
 _atom_site_type_symbol
 _atom_site_label
 _atom_site_symmetry_multiplicity
 _atom_site_fract_x
 _atom_site_fract_y
 _atom_site_fract_z
 _atom_site_occupancy
  Mn  Mn0  1  0.337949  0.335343  0.170166  1
  Mn  Mn1  1  0.337038  0.833546  0.170293  1
  Mn  Mn2  1  0.668425  0.165710  0.333081  1
  Mn  Mn3  1  0.166988  0.165720  0.333244  1
  Mn  Mn4  1  0.999241  0.001179  0.499721  1
  Mn  Mn5  1  0.999768  0.499409  0.499433  1
  Mn  Mn6  1  0.831458  0.830416  0.663706  1
  Mn  Mn7  1  0.332247  0.831375  0.663652  1
  Mn  Mn8  1  0.666405  0.654671  0.832499  1
  Fe  Fe9  1  0.512005  0.499301  0.000686  1
  Fe  Fe10  1  0.988502  0.500432  0.001936  1
  Fe  Fe11  1  0.668584  0.176544  0.832659  1
  Fe  Fe12  1  0.209007  0.954921  0.917511  1
  O  O13  1  0.253944  0.261324  0.008543  1
  O  O14  1  0.253546  0.745616  0.010193  1
  O  O15  1  0.541250  0.581148  0.159888  1
  O  O16  1  0.123921  0.579163  0.161277  1
  O  O17  1  0.558997  0.089546  0.178960  1
  O  O18  1  0.125294  0.088738  0.179388  1
  O  O19  1  0.414145  0.378147  0.323413  1
  O  O20  1  0.412552  0.943715  0.323540  1
  O  O21  1  0.922384  0.954567  0.344520  1
  O  O22  1  0.923805  0.387894  0.343958  1
  O  O23  1  0.210189  0.244970  0.488843  1
  O  O24  1  0.777883  0.243836  0.488851  1
  O  O25  1  0.787565  0.754535  0.510289  1
  O  O26  1  0.222531  0.756506  0.510047  1
  O  O27  1  0.077426  0.043951  0.654616  1
  O  O28  1  0.076304  0.610107  0.653997  1
  O  O29  1  0.587404  0.624736  0.677083  1
  O  O30  1  0.587564  0.042776  0.672872  1
  O  O31  1  0.424435  0.904028  0.824494  1
  O  O32  1  0.901498  0.904423  0.824215  1
  O  O33  1  0.891991  0.433554  0.836736  1
  O  O34  1  0.445885  0.431193  0.837576  1
  O  O35  1  0.746732  0.264797  0.991290  1
  O  O36  1  0.743154  0.727625  0.983505  1
