# generated using pymatgen
data_Mo3Pd2N
_symmetry_space_group_name_H-M   'P 1'
_cell_length_a   6.87822705
_cell_length_b   6.87822705
_cell_length_c   6.87822705
_cell_angle_alpha   90.00000000
_cell_angle_beta   90.00000000
_cell_angle_gamma   90.00000000
_symmetry_Int_Tables_number   1
_chemical_formula_structural   Mo3Pd2N
_chemical_formula_sum   'Mo12 Pd8 N4'
_cell_volume   325.40897230
_cell_formula_units_Z   4
loop_
 _symmetry_equiv_pos_site_id
 _symmetry_equiv_pos_as_xyz
  1  'x, y, z'
loop_
 _atom_site_type_symbol
 _atom_site_label
 _atom_site_symmetry_multiplicity
 _atom_site_fract_x
 _atom_site_fract_y
 _atom_site_fract_z
 _atom_site_occupancy
  Pd  Pd0  1  0.189308  0.189308  0.189308  1
  Pd  Pd1  1  0.439308  0.060692  0.939308  1
  Pd  Pd2  1  0.939308  0.439308  0.060692  1
  Pd  Pd3  1  0.060692  0.939308  0.439308  1
  Pd  Pd4  1  0.310692  0.810692  0.689308  1
  Pd  Pd5  1  0.689308  0.310692  0.810692  1
  Pd  Pd6  1  0.810692  0.689308  0.310692  1
  Pd  Pd7  1  0.560692  0.560692  0.560692  1
  Mo  Mo8  1  0.797350  0.047350  0.125000  1
  Mo  Mo9  1  0.047350  0.125000  0.797350  1
  Mo  Mo10  1  0.547350  0.375000  0.202650  1
  Mo  Mo11  1  0.875000  0.297350  0.452650  1
  Mo  Mo12  1  0.125000  0.797350  0.047350  1
  Mo  Mo13  1  0.202650  0.547350  0.375000  1
  Mo  Mo14  1  0.297350  0.452650  0.875000  1
  Mo  Mo15  1  0.452650  0.875000  0.297350  1
  Mo  Mo16  1  0.625000  0.702650  0.952650  1
  Mo  Mo17  1  0.952650  0.625000  0.702650  1
  Mo  Mo18  1  0.375000  0.202650  0.547350  1
  Mo  Mo19  1  0.702650  0.952650  0.625000  1
  N  N20  1  0.875000  0.875000  0.875000  1
  N  N21  1  0.125000  0.375000  0.625000  1
  N  N22  1  0.625000  0.125000  0.375000  1
  N  N23  1  0.375000  0.625000  0.125000  1
