# generated using pymatgen
data_Ce2Ti2O7
_symmetry_space_group_name_H-M   'P 1'
_cell_length_a   7.32823674
_cell_length_b   7.32836224
_cell_length_c   7.32833161
_cell_angle_alpha   60.00036534
_cell_angle_beta   60.00030597
_cell_angle_gamma   60.00089001
_symmetry_Int_Tables_number   1
_chemical_formula_structural   Ce2Ti2O7
_chemical_formula_sum   'Ce4 Ti4 O14'
_cell_volume   278.29260046
_cell_formula_units_Z   2
loop_
 _symmetry_equiv_pos_site_id
 _symmetry_equiv_pos_as_xyz
  1  'x, y, z'
loop_
 _atom_site_type_symbol
 _atom_site_label
 _atom_site_symmetry_multiplicity
 _atom_site_fract_x
 _atom_site_fract_y
 _atom_site_fract_z
 _atom_site_occupancy
  Ce  Ce0  1  0.500002  -0.000001  0.499996  1
  Ce  Ce1  1  0.499997  0.500005  0.999997  1
  Ce  Ce2  1  -0.000004  0.499998  0.500001  1
  Ce  Ce3  1  0.499999  0.500007  0.499998  1
  Ti  Ti4  1  0.499991  -0.000003  0.000001  1
  Ti  Ti5  1  0.000003  0.999993  0.999996  1
  Ti  Ti6  1  0.999997  0.500005  0.000001  1
  Ti  Ti7  1  0.000003  0.000001  0.499994  1
  O  O8  1  0.671951  0.078050  0.078047  1
  O  O9  1  0.921956  0.328042  0.328039  1
  O  O10  1  0.078039  0.671958  0.078045  1
  O  O11  1  0.078047  0.078049  0.671963  1
  O  O12  1  0.375005  0.375004  0.375005  1
  O  O13  1  0.671958  0.671958  0.078046  1
  O  O14  1  0.671957  0.078047  0.671953  1
  O  O15  1  0.328049  0.921950  0.328046  1
  O  O16  1  0.625001  0.624987  0.624997  1
  O  O17  1  0.328050  0.328039  0.921956  1
  O  O18  1  0.921950  0.921952  0.328045  1
  O  O19  1  0.921954  0.328051  0.921957  1
  O  O20  1  0.078048  0.671951  0.671960  1
  O  O21  1  0.328047  0.921958  0.921956  1
