# generated using pymatgen
data_Nb3Co3C
_symmetry_space_group_name_H-M   'P 1'
_cell_length_a   8.03011522
_cell_length_b   8.03011504
_cell_length_c   8.03011449
_cell_angle_alpha   59.99999846
_cell_angle_beta   59.99999916
_cell_angle_gamma   60.00000096
_symmetry_Int_Tables_number   1
_chemical_formula_structural   Nb3Co3C
_chemical_formula_sum   'Nb12 Co12 C4'
_cell_volume   366.14261485
_cell_formula_units_Z   4
loop_
 _symmetry_equiv_pos_site_id
 _symmetry_equiv_pos_as_xyz
  1  'x, y, z'
loop_
 _atom_site_type_symbol
 _atom_site_label
 _atom_site_symmetry_multiplicity
 _atom_site_fract_x
 _atom_site_fract_y
 _atom_site_fract_z
 _atom_site_occupancy
  Co  Co0  1  0.500000  0.500000  0.500000  1
  Co  Co1  1  0.500000  0.500000  0.000000  1
  Co  Co2  1  0.000000  0.500000  0.500000  1
  Co  Co3  1  0.500000  0.000000  0.500000  1
  Co  Co4  1  0.702159  0.702159  0.702159  1
  Co  Co5  1  0.297841  0.297841  0.606476  1
  Co  Co6  1  0.606476  0.297841  0.297841  1
  Co  Co7  1  0.297841  0.606476  0.297841  1
  Co  Co8  1  0.393524  0.702159  0.702159  1
  Co  Co9  1  0.702159  0.393524  0.702159  1
  Co  Co10  1  0.702159  0.702159  0.393524  1
  Co  Co11  1  0.297841  0.297841  0.297841  1
  Nb  Nb12  1  0.675659  0.074341  0.074341  1
  Nb  Nb13  1  0.925659  0.925659  0.324341  1
  Nb  Nb14  1  0.324341  0.324341  0.925659  1
  Nb  Nb15  1  0.925659  0.324341  0.324341  1
  Nb  Nb16  1  0.925659  0.324341  0.925659  1
  Nb  Nb17  1  0.324341  0.925659  0.324341  1
  Nb  Nb18  1  0.074341  0.675659  0.074341  1
  Nb  Nb19  1  0.074341  0.074341  0.675659  1
  Nb  Nb20  1  0.675659  0.675659  0.074341  1
  Nb  Nb21  1  0.675659  0.074341  0.675659  1
  Nb  Nb22  1  0.324341  0.925659  0.925659  1
  Nb  Nb23  1  0.074341  0.675659  0.675659  1
  C  C24  1  0.000000  0.000000  0.000000  1
  C  C25  1  0.000000  0.000000  0.500000  1
  C  C26  1  0.500000  0.000000  0.000000  1
  C  C27  1  0.000000  0.500000  0.000000  1
