# generated using pymatgen
data_Nb3CuO8
_symmetry_space_group_name_H-M   'P 1'
_cell_length_a   5.10103252
_cell_length_b   7.66205721
_cell_length_c   15.18264983
_cell_angle_alpha   101.65884342
_cell_angle_beta   90.00000000
_cell_angle_gamma   90.00000000
_symmetry_Int_Tables_number   1
_chemical_formula_structural   Nb3CuO8
_chemical_formula_sum   'Nb12 Cu4 O32'
_cell_volume   581.16180958
_cell_formula_units_Z   4
loop_
 _symmetry_equiv_pos_site_id
 _symmetry_equiv_pos_as_xyz
  1  'x, y, z'
loop_
 _atom_site_type_symbol
 _atom_site_label
 _atom_site_symmetry_multiplicity
 _atom_site_fract_x
 _atom_site_fract_y
 _atom_site_fract_z
 _atom_site_occupancy
  O  O0  1  0.580414  0.564941  0.345265  1
  O  O1  1  0.080414  0.935059  0.154735  1
  O  O2  1  0.419586  0.435059  0.654735  1
  O  O3  1  0.919586  0.064941  0.845265  1
  O  O4  1  0.074921  0.442193  0.399961  1
  O  O5  1  0.574921  0.057807  0.100039  1
  O  O6  1  0.925079  0.557807  0.600039  1
  O  O7  1  0.425079  0.942193  0.899961  1
  O  O8  1  0.927798  0.803857  0.452221  1
  O  O9  1  0.427798  0.696143  0.047779  1
  O  O10  1  0.072202  0.196143  0.547779  1
  O  O11  1  0.572202  0.303857  0.952221  1
  O  O12  1  0.432986  0.903473  0.400733  1
  O  O13  1  0.932986  0.596527  0.099267  1
  O  O14  1  0.567014  0.096527  0.599267  1
  O  O15  1  0.067014  0.403473  0.900733  1
  O  O16  1  0.569488  0.802697  0.719193  1
  O  O17  1  0.069488  0.697303  0.780807  1
  O  O18  1  0.430512  0.197303  0.280807  1
  O  O19  1  0.930512  0.302697  0.219193  1
  O  O20  1  0.597803  0.580403  0.846650  1
  O  O21  1  0.097803  0.919597  0.653350  1
  O  O22  1  0.402197  0.419597  0.153350  1
  O  O23  1  0.902197  0.080403  0.346650  1
  O  O24  1  0.415040  0.199627  0.784019  1
  O  O25  1  0.915040  0.300373  0.715981  1
  O  O26  1  0.584960  0.800373  0.215981  1
  O  O27  1  0.084960  0.699627  0.284019  1
  O  O28  1  0.900412  0.809077  0.961119  1
  O  O29  1  0.400412  0.690923  0.538881  1
  O  O30  1  0.099588  0.190923  0.038881  1
  O  O31  1  0.599588  0.309077  0.461119  1
  Cu  Cu32  1  0.758151  0.343834  0.077760  1
  Cu  Cu33  1  0.258151  0.156166  0.422240  1
  Cu  Cu34  1  0.241849  0.656166  0.922240  1
  Cu  Cu35  1  0.741849  0.843834  0.577760  1
  Nb  Nb36  1  0.759639  0.852201  0.335076  1
  Nb  Nb37  1  0.259639  0.647799  0.164924  1
  Nb  Nb38  1  0.240361  0.147799  0.664924  1
  Nb  Nb39  1  0.740361  0.352201  0.835076  1
  Nb  Nb40  1  0.254161  0.675514  0.424103  1
  Nb  Nb41  1  0.754161  0.824486  0.075897  1
  Nb  Nb42  1  0.745839  0.324486  0.575897  1
  Nb  Nb43  1  0.245839  0.175514  0.924103  1
  Nb  Nb44  1  0.764550  0.340638  0.332677  1
  Nb  Nb45  1  0.264550  0.159362  0.167323  1
  Nb  Nb46  1  0.235450  0.659362  0.667323  1
  Nb  Nb47  1  0.735450  0.840638  0.832677  1
