# generated using pymatgen
data_Nb12WO33
_symmetry_space_group_name_H-M   'P 1'
_cell_length_a   3.87321067
_cell_length_b   11.56871398
_cell_length_c   15.35299788
_cell_angle_alpha   83.60094629
_cell_angle_beta   82.72362695
_cell_angle_gamma   80.27362878
_symmetry_Int_Tables_number   1
_chemical_formula_structural   Nb12WO33
_chemical_formula_sum   'Nb12 W1 O33'
_cell_volume   669.72980980
_cell_formula_units_Z   1
loop_
 _symmetry_equiv_pos_site_id
 _symmetry_equiv_pos_as_xyz
  1  'x, y, z'
loop_
 _atom_site_type_symbol
 _atom_site_label
 _atom_site_symmetry_multiplicity
 _atom_site_fract_x
 _atom_site_fract_y
 _atom_site_fract_z
 _atom_site_occupancy
  Nb  Nb0  1  0.748865  0.361213  0.138619  1
  Nb  Nb1  1  0.360948  0.310814  0.954146  1
  Nb  Nb2  1  0.585950  0.454767  0.382017  1
  Nb  Nb3  1  0.628658  0.689182  0.046423  1
  Nb  Nb4  1  0.141581  0.968419  0.767545  1
  Nb  Nb5  1  0.394011  0.545780  0.620001  1
  Nb  Nb6  1  0.872915  0.031323  0.233167  1
  Nb  Nb7  1  0.699798  0.124416  0.473008  1
  Nb  Nb8  1  0.464494  0.783477  0.288054  1
  Nb  Nb9  1  0.297070  0.875020  0.527784  1
  Nb  Nb10  1  0.539167  0.215873  0.712397  1
  Nb  Nb11  1  0.252379  0.638826  0.862646  1
  W  W12  1  0.753533  0.000016  0.000263  1
  O  O13  1  0.219604  0.075981  0.480702  1
  O  O14  1  0.446875  0.254928  0.844617  1
  O  O15  1  0.306025  0.474049  0.918341  1
  O  O16  1  0.187450  0.815521  0.821637  1
  O  O17  1  0.565736  0.869918  0.987956  1
  O  O18  1  0.951913  0.827480  0.271497  1
  O  O19  1  0.647759  0.279624  0.425569  1
  O  O20  1  0.618258  0.161209  0.595914  1
  O  O21  1  0.272619  0.346724  0.104659  1
  O  O22  1  0.912208  0.547595  0.628341  1
  O  O23  1  0.611079  0.019584  0.767094  1
  O  O24  1  0.380499  0.835997  0.405495  1
  O  O25  1  0.674299  0.402181  0.251005  1
  O  O26  1  0.148365  0.693203  0.009068  1
  O  O27  1  0.817501  0.184132  0.179447  1
  O  O28  1  0.693206  0.526363  0.082664  1
  O  O29  1  0.050721  0.172050  0.729458  1
  O  O30  1  0.777664  0.923105  0.520295  1
  O  O31  1  0.425417  0.130324  0.012223  1
  O  O32  1  0.040259  0.028052  0.900142  1
  O  O33  1  0.478463  0.375022  0.674554  1
  O  O34  1  0.349218  0.720834  0.577524  1
  O  O35  1  0.789288  0.065017  0.350179  1
  O  O36  1  0.209001  0.934928  0.650781  1
  O  O37  1  0.394386  0.979968  0.233987  1
  O  O38  1  0.087797  0.450579  0.374210  1
  O  O39  1  0.525116  0.623953  0.324060  1
  O  O40  1  0.552165  0.745972  0.155558  1
  O  O41  1  0.330307  0.597610  0.750118  1
  O  O42  1  0.966615  0.972176  0.100498  1
  O  O43  1  0.727438  0.652951  0.896567  1
  O  O44  1  0.499685  0.503645  0.499729  1
  O  O45  1  0.848876  0.307603  0.991318  1
