# generated using pymatgen
data_Nb2Ni4O9
_symmetry_space_group_name_H-M   'P 1'
_cell_length_a   10.21240486
_cell_length_b   10.23681689
_cell_length_c   15.36080827
_cell_angle_alpha   80.45556686
_cell_angle_beta   70.58442156
_cell_angle_gamma   60.07885489
_symmetry_Int_Tables_number   1
_chemical_formula_structural   Nb2Ni4O9
_chemical_formula_sum   'Nb16 Ni32 O72'
_cell_volume   1312.66776790
_cell_formula_units_Z   8
loop_
 _symmetry_equiv_pos_site_id
 _symmetry_equiv_pos_as_xyz
  1  'x, y, z'
loop_
 _atom_site_type_symbol
 _atom_site_label
 _atom_site_symmetry_multiplicity
 _atom_site_fract_x
 _atom_site_fract_y
 _atom_site_fract_z
 _atom_site_occupancy
  Nb  Nb0  1  0.984821  0.725292  0.355237  1
  Nb  Nb1  1  0.454825  0.694845  0.354414  1
  Nb  Nb2  1  0.290865  0.224144  0.644857  1
  Nb  Nb3  1  0.056748  0.696013  0.145780  1
  Nb  Nb4  1  0.685722  0.724144  0.855143  1
  Nb  Nb5  1  0.289888  0.725292  0.644763  1
  Nb  Nb6  1  0.684651  0.225292  0.855237  1
  Nb  Nb7  1  0.559239  0.194845  0.145586  1
  Nb  Nb8  1  0.484990  0.224144  0.355143  1
  Nb  Nb9  1  0.247238  0.696013  0.854220  1
  Nb  Nb10  1  0.850330  0.694845  0.645586  1
  Nb  Nb11  1  0.851458  0.196013  0.645780  1
  Nb  Nb12  1  0.090058  0.225292  0.144763  1
  Nb  Nb13  1  0.590133  0.724144  0.144857  1
  Nb  Nb14  1  0.245916  0.194845  0.854414  1
  Nb  Nb15  1  0.952528  0.196013  0.354220  1
  Ni  Ni16  1  0.818303  0.880723  0.997744  1
  Ni  Ni17  1  0.900366  0.878826  0.813760  1
  Ni  Ni18  1  0.300974  0.880723  0.002256  1
  Ni  Ni19  1  0.322166  0.042425  0.312423  1
  Ni  Ni20  1  0.053230  0.380723  0.497744  1
  Ni  Ni21  1  0.973930  0.052141  0.000000  1
  Ni  Ni22  1  0.723930  0.552141  0.500000  1
  Ni  Ni23  1  0.464126  0.378826  0.686240  1
  Ni  Ni24  1  0.478565  0.042869  0.000000  1
  Ni  Ni25  1  0.237583  0.045335  0.496661  1
  Ni  Ni26  1  0.635409  0.042425  0.687577  1
  Ni  Ni27  1  0.465054  0.877998  0.685545  1
  Ni  Ni28  1  0.306473  0.387054  0.000000  1
  Ni  Ni29  1  0.721402  0.377998  0.185545  1
  Ni  Ni30  1  0.228565  0.542869  0.500000  1
  Ni  Ni31  1  0.220808  0.878826  0.186240  1
  Ni  Ni32  1  0.656947  0.877998  0.314455  1
  Ni  Ni33  1  0.884680  0.042813  0.185808  1
  Ni  Ni34  1  0.820488  0.542813  0.314192  1
  Ni  Ni35  1  0.072986  0.542425  0.812423  1
  Ni  Ni36  1  0.813526  0.372948  0.000000  1
  Ni  Ni37  1  0.717083  0.045335  0.503339  1
  Ni  Ni38  1  0.563526  0.872948  0.500000  1
  Ni  Ni39  1  0.970422  0.545335  0.996661  1
  Ni  Ni40  1  0.566047  0.380723  0.502256  1
  Ni  Ni41  1  0.900599  0.377998  0.814455  1
  Ni  Ni42  1  0.384589  0.542425  0.187577  1
  Ni  Ni43  1  0.072507  0.042813  0.814192  1
  Ni  Ni44  1  0.484243  0.545335  0.003339  1
  Ni  Ni45  1  0.157048  0.378826  0.313760  1
  Ni  Ni46  1  0.056473  0.887054  0.500000  1
  Ni  Ni47  1  0.636699  0.542813  0.685808  1
  O  O48  1  0.511230  0.211451  0.597051  1
  O  O49  1  0.512060  0.384524  0.927168  1
  O  O50  1  0.176271  0.049934  0.917798  1
  O  O51  1  0.522773  0.060700  0.248158  1
  O  O52  1  0.773795  0.049934  0.082202  1
  O  O53  1  0.028726  0.209723  0.571558  1
  O  O54  1  0.268475  0.856968  0.749563  1
  O  O55  1  0.616833  0.212736  0.751844  1
  O  O56  1  0.350284  0.709723  0.928442  1
  O  O57  1  0.842359  0.048386  0.588573  1
  O  O58  1  0.119478  0.210693  0.749114  1
  O  O59  1  0.520930  0.560700  0.251842  1
  O  O60  1  0.761551  0.209723  0.428442  1
  O  O61  1  0.430268  0.711451  0.097051  1
  O  O62  1  0.433998  0.212298  0.076806  1
  O  O63  1  0.512142  0.714158  0.593679  1
  O  O64  1  0.437491  0.378882  0.426569  1
  O  O65  1  0.605997  0.549934  0.417798  1
  O  O66  1  0.027391  0.880070  0.904253  1
  O  O67  1  0.599875  0.039996  0.416246  1
  O  O68  1  0.681644  0.380070  0.595747  1
  O  O69  1  0.376508  0.856176  0.249050  1
  O  O70  1  0.024008  0.378090  0.904220  1
  O  O71  1  0.844069  0.549934  0.582202  1
  O  O72  1  0.766122  0.539996  0.083754  1
  O  O73  1  0.618592  0.710693  0.750886  1
  O  O74  1  0.918370  0.560700  0.748158  1
  O  O75  1  0.277318  0.211451  0.402949  1
  O  O76  1  0.916698  0.064024  0.750766  1
  O  O77  1  0.026898  0.712298  0.576806  1
  O  O78  1  0.183628  0.378882  0.573431  1
  O  O79  1  0.669830  0.210693  0.250886  1
  O  O80  1  0.855821  0.214158  0.906321  1
  O  O81  1  0.926247  0.884524  0.427168  1
  O  O82  1  0.265439  0.040971  0.085157  1
  O  O83  1  0.670716  0.710693  0.249114  1
  O  O84  1  0.416528  0.060700  0.751842  1
  O  O85  1  0.358433  0.540971  0.585157  1
  O  O86  1  0.018513  0.564024  0.250766  1
  O  O87  1  0.930021  0.214158  0.093679  1
  O  O88  1  0.109255  0.048386  0.411427  1
  O  O89  1  0.767316  0.856176  0.750950  1
  O  O90  1  0.019278  0.064024  0.249234  1
  O  O91  1  0.874557  0.856968  0.250437  1
  O  O92  1  0.260804  0.712298  0.423194  1
  O  O93  1  0.938286  0.380070  0.404253  1
  O  O94  1  0.092539  0.880070  0.095747  1
  O  O95  1  0.874994  0.356968  0.249563  1
  O  O96  1  0.597902  0.378090  0.095780  1
  O  O97  1  0.360129  0.039996  0.583754  1
  O  O98  1  0.773700  0.714158  0.406321  1
  O  O99  1  0.189228  0.884524  0.572832  1
  O  O100  1  0.168586  0.712736  0.251844  1
  O  O101  1  0.443682  0.878090  0.404220  1
  O  O102  1  0.678228  0.878090  0.595780  1
  O  O103  1  0.170431  0.212736  0.248156  1
  O  O104  1  0.693883  0.539996  0.916246  1
  O  O105  1  0.507059  0.878882  0.926569  1
  O  O106  1  0.180932  0.548386  0.911427  1
  O  O107  1  0.268266  0.356176  0.749050  1
  O  O108  1  0.614060  0.878882  0.073431  1
  O  O109  1  0.768038  0.356968  0.750437  1
  O  O110  1  0.100595  0.540971  0.414843  1
  O  O111  1  0.375558  0.356176  0.250950  1
  O  O112  1  0.417464  0.564024  0.749234  1
  O  O113  1  0.858281  0.711451  0.902949  1
  O  O114  1  0.103416  0.384524  0.072832  1
  O  O115  1  0.118678  0.712736  0.748156  1
  O  O116  1  0.693590  0.040971  0.914843  1
  O  O117  1  0.270681  0.548386  0.088573  1
  O  O118  1  0.353705  0.212298  0.923194  1
  O  O119  1  0.939993  0.709723  0.071558  1
