# generated using pymatgen
data_CeVO4
_symmetry_space_group_name_H-M   'P 1'
_cell_length_a   7.26309288
_cell_length_b   6.96196617
_cell_length_c   7.35253243
_cell_angle_alpha   90.00000000
_cell_angle_beta   90.00000000
_cell_angle_gamma   122.77913959
_symmetry_Int_Tables_number   1
_chemical_formula_structural   CeVO4
_chemical_formula_sum   'Ce4 V4 O16'
_cell_volume   312.58234654
_cell_formula_units_Z   4
loop_
 _symmetry_equiv_pos_site_id
 _symmetry_equiv_pos_as_xyz
  1  'x, y, z'
loop_
 _atom_site_type_symbol
 _atom_site_label
 _atom_site_symmetry_multiplicity
 _atom_site_fract_x
 _atom_site_fract_y
 _atom_site_fract_z
 _atom_site_occupancy
  Ce  Ce0  1  0.332360  0.143800  0.158851  1
  Ce  Ce1  1  0.167640  0.356200  0.658851  1
  Ce  Ce2  1  0.667640  0.856200  0.841149  1
  Ce  Ce3  1  0.832360  0.643800  0.341149  1
  V  V4  1  0.799699  0.096438  0.305604  1
  V  V5  1  0.700301  0.403562  0.805604  1
  V  V6  1  0.200301  0.903562  0.694396  1
  V  V7  1  0.299699  0.596438  0.194396  1
  O  O8  1  0.738491  0.554211  0.001954  1
  O  O9  1  0.761509  0.945789  0.501954  1
  O  O10  1  0.261509  0.445789  0.998046  1
  O  O11  1  0.238491  0.054211  0.498046  1
  O  O12  1  0.967483  0.994450  0.190717  1
  O  O13  1  0.532517  0.505550  0.690717  1
  O  O14  1  0.032517  0.005550  0.809283  1
  O  O15  1  0.467483  0.494450  0.309283  1
  O  O16  1  0.660194  0.264593  0.298451  1
  O  O17  1  0.839806  0.235407  0.798451  1
  O  O18  1  0.339806  0.735407  0.701549  1
  O  O19  1  0.160194  0.764593  0.201549  1
  O  O20  1  0.566445  0.887574  0.131531  1
  O  O21  1  0.933555  0.612426  0.631531  1
  O  O22  1  0.433555  0.112426  0.868469  1
  O  O23  1  0.066445  0.387574  0.368469  1
