# generated using pymatgen
data_Nb8Zn4C3
_symmetry_space_group_name_H-M   'P 1'
_cell_length_a   8.49346090
_cell_length_b   8.49344233
_cell_length_c   8.49351341
_cell_angle_alpha   59.99994880
_cell_angle_beta   59.99981334
_cell_angle_gamma   59.99987677
_symmetry_Int_Tables_number   1
_chemical_formula_structural   Nb8Zn4C3
_chemical_formula_sum   'Nb16 Zn8 C6'
_cell_volume   433.25105410
_cell_formula_units_Z   2
loop_
 _symmetry_equiv_pos_site_id
 _symmetry_equiv_pos_as_xyz
  1  'x, y, z'
loop_
 _atom_site_type_symbol
 _atom_site_label
 _atom_site_symmetry_multiplicity
 _atom_site_fract_x
 _atom_site_fract_y
 _atom_site_fract_z
 _atom_site_occupancy
  Nb  Nb0  1  0.185543  0.564462  0.564448  1
  Nb  Nb1  1  0.185540  0.185539  0.564460  1
  Nb  Nb2  1  0.564460  0.185537  0.185540  1
  Nb  Nb3  1  0.435548  0.814460  0.814451  1
  Nb  Nb4  1  0.564463  0.185535  0.564463  1
  Nb  Nb5  1  0.814455  0.814457  0.435547  1
  Nb  Nb6  1  0.000000  0.499998  0.000001  1
  Nb  Nb7  1  0.435541  0.814459  0.435542  1
  Nb  Nb8  1  0.500002  0.000000  0.999999  1
  Nb  Nb9  1  0.814450  0.435547  0.814446  1
  Nb  Nb10  1  0.185543  0.564458  0.185549  1
  Nb  Nb11  1  0.564449  0.564459  0.185547  1
  Nb  Nb12  1  0.435557  0.435543  0.814449  1
  Nb  Nb13  1  0.000000  0.999999  0.000000  1
  Nb  Nb14  1  0.000001  0.000002  0.500000  1
  Nb  Nb15  1  0.814448  0.435544  0.435556  1
  Zn  Zn16  1  0.787771  0.787785  0.136665  1
  Zn  Zn17  1  0.863335  0.212215  0.212228  1
  Zn  Zn18  1  0.787772  0.787788  0.787776  1
  Zn  Zn19  1  0.212222  0.863342  0.212219  1
  Zn  Zn20  1  0.787778  0.136659  0.787779  1
  Zn  Zn21  1  0.212226  0.212214  0.212225  1
  Zn  Zn22  1  0.136667  0.787784  0.787773  1
  Zn  Zn23  1  0.212229  0.212213  0.863337  1
  C  C24  1  0.500000  0.499999  0.499999  1
  C  C25  1  0.375003  0.374995  0.375002  1
  C  C26  1  0.624997  0.625008  0.624999  1
  C  C27  1  0.499998  0.000003  0.500000  1
  C  C28  1  0.000005  0.499997  0.499997  1
  C  C29  1  0.499998  0.499999  0.000004  1
