# generated using pymatgen
data_Ce2(WO4)3
_symmetry_space_group_name_H-M   'P 1'
_cell_length_a   7.14006166
_cell_length_b   7.14006166
_cell_length_c   11.75649847
_cell_angle_alpha   101.02738224
_cell_angle_beta   101.02738227
_cell_angle_gamma   111.94770621
_symmetry_Int_Tables_number   1
_chemical_formula_structural   Ce2(WO4)3
_chemical_formula_sum   'Ce4 W6 O24'
_cell_volume   522.42690840
_cell_formula_units_Z   2
loop_
 _symmetry_equiv_pos_site_id
 _symmetry_equiv_pos_as_xyz
  1  'x, y, z'
loop_
 _atom_site_type_symbol
 _atom_site_label
 _atom_site_symmetry_multiplicity
 _atom_site_fract_x
 _atom_site_fract_y
 _atom_site_fract_z
 _atom_site_occupancy
  O  O0  1  0.900911  0.325407  0.429036  1
  O  O1  1  0.674593  0.099089  0.070964  1
  O  O2  1  0.099089  0.674593  0.570964  1
  O  O3  1  0.325407  0.900911  0.929036  1
  O  O4  1  0.399921  0.328465  0.059639  1
  O  O5  1  0.671535  0.600079  0.440361  1
  O  O6  1  0.600079  0.671535  0.940361  1
  O  O7  1  0.328465  0.399921  0.559639  1
  O  O8  1  0.193627  0.349831  0.304395  1
  O  O9  1  0.650169  0.806373  0.195605  1
  O  O10  1  0.947114  0.027470  0.609391  1
  O  O11  1  0.972530  0.052886  0.890609  1
  O  O12  1  0.052886  0.972530  0.390609  1
  O  O13  1  0.027470  0.947114  0.109391  1
  O  O14  1  0.602656  0.011970  0.718874  1
  O  O15  1  0.988030  0.397344  0.781126  1
  O  O16  1  0.397344  0.988030  0.281126  1
  O  O17  1  0.011970  0.602656  0.218874  1
  O  O18  1  0.623986  0.228165  0.539630  1
  O  O19  1  0.771835  0.376014  0.960370  1
  O  O20  1  0.376014  0.771835  0.460370  1
  O  O21  1  0.228165  0.623986  0.039630  1
  O  O22  1  0.349831  0.193627  0.804395  1
  O  O23  1  0.806373  0.650169  0.695605  1
  Ce  Ce24  1  0.306973  0.052323  0.594873  1
  Ce  Ce25  1  0.947677  0.693027  0.905127  1
  Ce  Ce26  1  0.693027  0.947677  0.405127  1
  Ce  Ce27  1  0.052323  0.306973  0.094873  1
  W  W28  1  0.115642  0.884358  0.250000  1
  W  W29  1  0.884358  0.115642  0.750000  1
  W  W30  1  0.493902  0.200778  0.953523  1
  W  W31  1  0.799222  0.506098  0.546477  1
  W  W32  1  0.506098  0.799222  0.046477  1
  W  W33  1  0.200778  0.493902  0.453523  1
