# generated using pymatgen
data_Nb5Ni
_symmetry_space_group_name_H-M   'P 1'
_cell_length_a   8.43635131
_cell_length_b   8.43577093
_cell_length_c   8.43564036
_cell_angle_alpha   59.99909027
_cell_angle_beta   59.99762120
_cell_angle_gamma   59.99893240
_symmetry_Int_Tables_number   1
_chemical_formula_structural   Nb5Ni
_chemical_formula_sum   'Nb20 Ni4'
_cell_volume   424.49071418
_cell_formula_units_Z   4
loop_
 _symmetry_equiv_pos_site_id
 _symmetry_equiv_pos_as_xyz
  1  'x, y, z'
loop_
 _atom_site_type_symbol
 _atom_site_label
 _atom_site_symmetry_multiplicity
 _atom_site_fract_x
 _atom_site_fract_y
 _atom_site_fract_z
 _atom_site_occupancy
  Nb  Nb0  1  0.285568  0.285543  0.285554  1
  Nb  Nb1  1  0.309457  0.940576  0.940522  1
  Nb  Nb2  1  0.285544  0.285544  0.643371  1
  Nb  Nb3  1  0.690560  0.059449  0.059440  1
  Nb  Nb4  1  0.714442  0.714476  0.714457  1
  Nb  Nb5  1  0.059430  0.690550  0.059471  1
  Nb  Nb6  1  0.690544  0.059438  0.690551  1
  Nb  Nb7  1  0.714450  0.714463  0.356652  1
  Nb  Nb8  1  0.643343  0.285536  0.285551  1
  Nb  Nb9  1  0.714453  0.356635  0.714455  1
  Nb  Nb10  1  0.690551  0.690551  0.059431  1
  Nb  Nb11  1  0.059436  0.059477  0.690548  1
  Nb  Nb12  1  0.940505  0.940569  0.309468  1
  Nb  Nb13  1  0.309462  0.940566  0.309442  1
  Nb  Nb14  1  0.059411  0.690547  0.690562  1
  Nb  Nb15  1  0.356690  0.714451  0.714439  1
  Nb  Nb16  1  0.285563  0.643303  0.285560  1
  Nb  Nb17  1  0.940549  0.309444  0.940540  1
  Nb  Nb18  1  0.940540  0.309451  0.309449  1
  Nb  Nb19  1  0.309468  0.309448  0.940520  1
  Ni  Ni20  1  0.500011  0.500005  0.000008  1
  Ni  Ni21  1  0.500011  0.499991  0.499997  1
  Ni  Ni22  1  0.500005  -0.000009  0.500006  1
  Ni  Ni23  1  0.000007  0.499996  0.500007  1
