# generated using pymatgen
data_Nb6CdO16
_symmetry_space_group_name_H-M   'P 1'
_cell_length_a   17.14183482
_cell_length_b   7.91001275
_cell_length_c   9.18434900
_cell_angle_alpha   90.00000000
_cell_angle_beta   90.00000000
_cell_angle_gamma   90.00000000
_symmetry_Int_Tables_number   1
_chemical_formula_structural   Nb6CdO16
_chemical_formula_sum   'Nb24 Cd4 O64'
_cell_volume   1245.32546180
_cell_formula_units_Z   4
loop_
 _symmetry_equiv_pos_site_id
 _symmetry_equiv_pos_as_xyz
  1  'x, y, z'
loop_
 _atom_site_type_symbol
 _atom_site_label
 _atom_site_symmetry_multiplicity
 _atom_site_fract_x
 _atom_site_fract_y
 _atom_site_fract_z
 _atom_site_occupancy
  Nb  Nb0  1  0.060639  0.002355  0.811168  1
  Nb  Nb1  1  0.060639  0.497645  0.811168  1
  Nb  Nb2  1  0.132775  0.994077  0.396937  1
  Nb  Nb3  1  0.132775  0.505923  0.396937  1
  Nb  Nb4  1  0.250716  0.500149  0.688944  1
  Nb  Nb5  1  0.250716  0.999851  0.688944  1
  Nb  Nb6  1  0.248198  0.002502  0.052050  1
  Nb  Nb7  1  0.248198  0.497498  0.052050  1
  Nb  Nb8  1  0.365518  0.996353  0.398929  1
  Nb  Nb9  1  0.365518  0.503647  0.398929  1
  Nb  Nb10  1  0.439997  0.002763  0.813831  1
  Nb  Nb11  1  0.439997  0.497237  0.813831  1
  Nb  Nb12  1  0.560639  0.002355  0.188832  1
  Nb  Nb13  1  0.560639  0.497645  0.188832  1
  Nb  Nb14  1  0.632775  0.994077  0.603063  1
  Nb  Nb15  1  0.632775  0.505923  0.603063  1
  Nb  Nb16  1  0.750716  0.999851  0.311056  1
  Nb  Nb17  1  0.748198  0.002502  0.947950  1
  Nb  Nb18  1  0.748198  0.497498  0.947950  1
  Nb  Nb19  1  0.750716  0.500149  0.311056  1
  Nb  Nb20  1  0.865518  0.996353  0.601071  1
  Nb  Nb21  1  0.865518  0.503647  0.601071  1
  Nb  Nb22  1  0.939997  0.002763  0.186169  1
  Nb  Nb23  1  0.939997  0.497237  0.186169  1
  Cd  Cd24  1  0.000642  0.250000  0.503189  1
  Cd  Cd25  1  0.409610  0.750000  0.095768  1
  Cd  Cd26  1  0.500642  0.250000  0.496811  1
  Cd  Cd27  1  0.909610  0.750000  0.904232  1
  O  O28  1  0.993242  0.998449  0.991880  1
  O  O29  1  0.993242  0.501551  0.991880  1
  O  O30  1  0.020838  0.004310  0.338182  1
  O  O31  1  0.020838  0.495690  0.338182  1
  O  O32  1  0.062025  0.250000  0.818776  1
  O  O33  1  0.048051  0.750000  0.818573  1
  O  O34  1  0.122341  0.250000  0.415072  1
  O  O35  1  0.127571  0.750000  0.404339  1
  O  O36  1  0.133107  0.997393  0.621536  1
  O  O37  1  0.133107  0.502607  0.621536  1
  O  O38  1  0.168414  0.000273  0.197682  1
  O  O39  1  0.168414  0.499727  0.197682  1
  O  O40  1  0.174421  0.994684  0.877252  1
  O  O41  1  0.174421  0.505316  0.877252  1
  O  O42  1  0.250560  0.496478  0.454276  1
  O  O43  1  0.250558  0.750000  0.688586  1
  O  O44  1  0.250560  0.003522  0.454276  1
  O  O45  1  0.250129  0.250000  0.690896  1
  O  O46  1  0.252464  0.250000  0.053311  1
  O  O47  1  0.257851  0.750000  0.046012  1
  O  O48  1  0.325638  0.003780  0.873686  1
  O  O49  1  0.325638  0.496220  0.873686  1
  O  O50  1  0.338361  0.986667  0.189817  1
  O  O51  1  0.338361  0.513333  0.189817  1
  O  O52  1  0.368579  0.995206  0.619659  1
  O  O53  1  0.368579  0.504794  0.619659  1
  O  O54  1  0.374899  0.250000  0.411702  1
  O  O55  1  0.375629  0.750000  0.396253  1
  O  O56  1  0.441323  0.250000  0.814676  1
  O  O57  1  0.437206  0.750000  0.836378  1
  O  O58  1  0.479561  0.012668  0.340843  1
  O  O59  1  0.479561  0.487332  0.340843  1
  O  O60  1  0.493242  0.998449  0.008120  1
  O  O61  1  0.493242  0.501551  0.008120  1
  O  O62  1  0.520838  0.004310  0.661818  1
  O  O63  1  0.520838  0.495690  0.661818  1
  O  O64  1  0.562025  0.250000  0.181224  1
  O  O65  1  0.548051  0.750000  0.181427  1
  O  O66  1  0.622341  0.250000  0.584928  1
  O  O67  1  0.627571  0.750000  0.595661  1
  O  O68  1  0.633107  0.997393  0.378464  1
  O  O69  1  0.633107  0.502607  0.378464  1
  O  O70  1  0.668414  0.000273  0.802318  1
  O  O71  1  0.668414  0.499727  0.802318  1
  O  O72  1  0.674421  0.994684  0.122748  1
  O  O73  1  0.674421  0.505316  0.122748  1
  O  O74  1  0.750560  0.003522  0.545724  1
  O  O75  1  0.750129  0.250000  0.309104  1
  O  O76  1  0.752464  0.250000  0.946689  1
  O  O77  1  0.750560  0.496478  0.545724  1
  O  O78  1  0.750558  0.750000  0.311414  1
  O  O79  1  0.757851  0.750000  0.953988  1
  O  O80  1  0.825638  0.003780  0.126314  1
  O  O81  1  0.825638  0.496220  0.126314  1
  O  O82  1  0.838361  0.986667  0.810183  1
  O  O83  1  0.838361  0.513333  0.810183  1
  O  O84  1  0.868579  0.995206  0.380341  1
  O  O85  1  0.868579  0.504794  0.380341  1
  O  O86  1  0.874899  0.250000  0.588298  1
  O  O87  1  0.875629  0.750000  0.603747  1
  O  O88  1  0.941323  0.250000  0.185324  1
  O  O89  1  0.937206  0.750000  0.163622  1
  O  O90  1  0.979561  0.012668  0.659157  1
  O  O91  1  0.979561  0.487332  0.659157  1
