# generated using pymatgen
data_NbCo3
_symmetry_space_group_name_H-M   'P 1'
_cell_length_a   5.20150049
_cell_length_b   5.20136314
_cell_length_c   4.16075233
_cell_angle_alpha   90.00000000
_cell_angle_beta   90.00000000
_cell_angle_gamma   119.99588737
_symmetry_Int_Tables_number   1
_chemical_formula_structural   NbCo3
_chemical_formula_sum   'Nb2 Co6'
_cell_volume   97.49140125
_cell_formula_units_Z   2
loop_
 _symmetry_equiv_pos_site_id
 _symmetry_equiv_pos_as_xyz
  1  'x, y, z'
loop_
 _atom_site_type_symbol
 _atom_site_label
 _atom_site_symmetry_multiplicity
 _atom_site_fract_x
 _atom_site_fract_y
 _atom_site_fract_z
 _atom_site_occupancy
  Nb  Nb0  1  0.666693  0.333355  0.250000  1
  Nb  Nb1  1  0.333384  0.666698  0.749999  1
  Co  Co2  1  0.314951  0.157497  0.749999  1
  Co  Co3  1  0.842489  0.685004  0.749999  1
  Co  Co4  1  0.157466  0.842542  0.250000  1
  Co  Co5  1  0.685046  0.842538  0.250000  1
  Co  Co6  1  0.157436  0.314885  0.250000  1
  Co  Co7  1  0.842538  0.157483  0.749999  1
