# generated using pymatgen
data_NbFeO4
_symmetry_space_group_name_H-M   'P 1'
_cell_length_a   4.58162743
_cell_length_b   5.02454747
_cell_length_c   5.59265204
_cell_angle_alpha   90.00000000
_cell_angle_beta   90.00000000
_cell_angle_gamma   91.73104985
_symmetry_Int_Tables_number   1
_chemical_formula_structural   NbFeO4
_chemical_formula_sum   'Nb2 Fe2 O8'
_cell_volume   128.68747589
_cell_formula_units_Z   2
loop_
 _symmetry_equiv_pos_site_id
 _symmetry_equiv_pos_as_xyz
  1  'x, y, z'
loop_
 _atom_site_type_symbol
 _atom_site_label
 _atom_site_symmetry_multiplicity
 _atom_site_fract_x
 _atom_site_fract_y
 _atom_site_fract_z
 _atom_site_occupancy
  O  O0  1  0.723669  0.925022  0.612970  1
  O  O1  1  0.276331  0.574978  0.612970  1
  O  O2  1  0.276331  0.074978  0.387030  1
  O  O3  1  0.723669  0.425022  0.387030  1
  O  O4  1  0.768803  0.915838  0.116927  1
  O  O5  1  0.231197  0.584162  0.116927  1
  O  O6  1  0.231197  0.084162  0.883073  1
  O  O7  1  0.768803  0.415838  0.883073  1
  Fe  Fe8  1  0.500000  0.250000  0.644304  1
  Fe  Fe9  1  0.500000  0.750000  0.355696  1
  Nb  Nb10  1  0.000000  0.250000  0.180128  1
  Nb  Nb11  1  0.000000  0.750000  0.819872  1
