# generated using pymatgen
data_Ce4Y2O11
_symmetry_space_group_name_H-M   'P 1'
_cell_length_a   3.85853787
_cell_length_b   3.85853787
_cell_length_c   16.35144588
_cell_angle_alpha   90.00000000
_cell_angle_beta   90.00000000
_cell_angle_gamma   90.00000000
_symmetry_Int_Tables_number   1
_chemical_formula_structural   Ce4Y2O11
_chemical_formula_sum   'Ce4 Y2 O11'
_cell_volume   243.44546810
_cell_formula_units_Z   1
loop_
 _symmetry_equiv_pos_site_id
 _symmetry_equiv_pos_as_xyz
  1  'x, y, z'
loop_
 _atom_site_type_symbol
 _atom_site_label
 _atom_site_symmetry_multiplicity
 _atom_site_fract_x
 _atom_site_fract_y
 _atom_site_fract_z
 _atom_site_occupancy
  Ce  Ce0  1  0.000000  0.000000  0.332744  1
  Ce  Ce1  1  0.500000  0.500000  0.499983  1
  Ce  Ce2  1  0.000000  0.000000  0.666684  1
  Ce  Ce3  1  0.500000  0.500000  0.833923  1
  Y  Y4  1  0.000000  0.000000  0.990141  1
  Y  Y5  1  0.500000  0.500000  0.176525  1
  O  O6  1  0.000000  0.500000  0.083333  1
  O  O7  1  0.500000  0.000000  0.237234  1
  O  O8  1  0.000000  0.500000  0.257823  1
  O  O9  1  0.000000  0.500000  0.420245  1
  O  O10  1  0.500000  0.000000  0.412417  1
  O  O11  1  0.500000  0.000000  0.583333  1
  O  O12  1  0.000000  0.500000  0.583333  1
  O  O13  1  0.500000  0.000000  0.754250  1
  O  O14  1  0.000000  0.500000  0.746422  1
  O  O15  1  0.500000  0.000000  0.929432  1
  O  O16  1  0.000000  0.500000  0.908844  1
