# generated using pymatgen
data_NbFeB
_symmetry_space_group_name_H-M   'P 1'
_cell_length_a   6.38265393
_cell_length_b   6.38265392
_cell_length_c   2.95803588
_cell_angle_alpha   90.00000000
_cell_angle_beta   90.00000000
_cell_angle_gamma   119.99999999
_symmetry_Int_Tables_number   1
_chemical_formula_structural   NbFeB
_chemical_formula_sum   'Nb3 Fe3 B3'
_cell_volume   104.36062313
_cell_formula_units_Z   3
loop_
 _symmetry_equiv_pos_site_id
 _symmetry_equiv_pos_as_xyz
  1  'x, y, z'
loop_
 _atom_site_type_symbol
 _atom_site_label
 _atom_site_symmetry_multiplicity
 _atom_site_fract_x
 _atom_site_fract_y
 _atom_site_fract_z
 _atom_site_occupancy
  B  B0  1  0.000000  0.000000  0.500000  1
  B  B1  1  0.666667  0.333333  0.500000  1
  B  B2  1  0.333333  0.666667  0.500000  1
  Fe  Fe3  1  0.333732  0.000000  0.500000  1
  Fe  Fe4  1  0.666268  0.666268  0.500000  1
  Fe  Fe5  1  0.000000  0.333732  0.500000  1
  Nb  Nb6  1  0.000000  0.667537  0.000000  1
  Nb  Nb7  1  0.332463  0.332463  0.000000  1
  Nb  Nb8  1  0.667537  0.000000  0.000000  1
