# generated using pymatgen
data_Nb2Cd2O7
_symmetry_space_group_name_H-M   'P 1'
_cell_length_a   7.46830880
_cell_length_b   7.46830879
_cell_length_c   7.46830879
_cell_angle_alpha   59.99999996
_cell_angle_beta   59.99999998
_cell_angle_gamma   59.99999994
_symmetry_Int_Tables_number   1
_chemical_formula_structural   Nb2Cd2O7
_chemical_formula_sum   'Nb4 Cd4 O14'
_cell_volume   294.54509926
_cell_formula_units_Z   2
loop_
 _symmetry_equiv_pos_site_id
 _symmetry_equiv_pos_as_xyz
  1  'x, y, z'
loop_
 _atom_site_type_symbol
 _atom_site_label
 _atom_site_symmetry_multiplicity
 _atom_site_fract_x
 _atom_site_fract_y
 _atom_site_fract_z
 _atom_site_occupancy
  O  O0  1  0.625000  0.625000  0.625000  1
  O  O1  1  0.375000  0.375000  0.375000  1
  O  O2  1  0.317633  0.932367  0.932367  1
  O  O3  1  0.067633  0.682367  0.682367  1
  O  O4  1  0.932367  0.317633  0.932367  1
  O  O5  1  0.932367  0.932367  0.317633  1
  O  O6  1  0.317633  0.317633  0.932367  1
  O  O7  1  0.317633  0.932367  0.317633  1
  O  O8  1  0.932367  0.317633  0.317633  1
  O  O9  1  0.682367  0.682367  0.067633  1
  O  O10  1  0.067633  0.067633  0.682367  1
  O  O11  1  0.682367  0.067633  0.067633  1
  O  O12  1  0.682367  0.067633  0.682367  1
  O  O13  1  0.067633  0.682367  0.067633  1
  Nb  Nb14  1  0.000000  0.500000  0.000000  1
  Nb  Nb15  1  0.500000  0.000000  0.000000  1
  Nb  Nb16  1  0.000000  0.000000  0.500000  1
  Nb  Nb17  1  0.000000  0.000000  0.000000  1
  Cd  Cd18  1  0.500000  0.000000  0.500000  1
  Cd  Cd19  1  0.000000  0.500000  0.500000  1
  Cd  Cd20  1  0.500000  0.500000  0.000000  1
  Cd  Cd21  1  0.500000  0.500000  0.500000  1
