# generated using pymatgen
data_Nb2Cd2O7
_symmetry_space_group_name_H-M   'P 1'
_cell_length_a   7.25745674
_cell_length_b   7.25745730
_cell_length_c   7.25746084
_cell_angle_alpha   59.99988955
_cell_angle_beta   59.99987653
_cell_angle_gamma   59.99983507
_symmetry_Int_Tables_number   1
_chemical_formula_structural   Nb2Cd2O7
_chemical_formula_sum   'Nb4 Cd4 O14'
_cell_volume   270.29458115
_cell_formula_units_Z   2
loop_
 _symmetry_equiv_pos_site_id
 _symmetry_equiv_pos_as_xyz
  1  'x, y, z'
loop_
 _atom_site_type_symbol
 _atom_site_label
 _atom_site_symmetry_multiplicity
 _atom_site_fract_x
 _atom_site_fract_y
 _atom_site_fract_z
 _atom_site_occupancy
  Nb  Nb0  1  0.000001  0.500000  0.499999  1
  Nb  Nb1  1  0.500001  0.500000  -0.000001  1
  Nb  Nb2  1  0.500000  -0.000001  0.500000  1
  Nb  Nb3  1  0.500000  0.500000  0.500001  1
  Cd  Cd4  1  0.499987  0.000004  0.000005  1
  Cd  Cd5  1  0.000004  0.000004  0.000004  1
  Cd  Cd6  1  0.000005  0.000005  0.499987  1
  Cd  Cd7  1  0.000004  0.499987  0.000005  1
  O  O8  1  0.391950  0.391951  0.858050  1
  O  O9  1  0.858048  0.391952  0.858049  1
  O  O10  1  0.608090  0.608090  0.141910  1
  O  O11  1  0.391951  0.858049  0.391950  1
  O  O12  1  0.624999  0.625000  0.625000  1
  O  O13  1  0.858049  0.858049  0.391951  1
  O  O14  1  0.141911  0.141910  0.608090  1
  O  O15  1  0.608090  0.141910  0.608090  1
  O  O16  1  0.141910  0.608089  0.141911  1
  O  O17  1  0.375000  0.375001  0.375000  1
  O  O18  1  0.391951  0.858049  0.858050  1
  O  O19  1  0.608090  0.141910  0.141910  1
  O  O20  1  0.141910  0.608089  0.608091  1
  O  O21  1  0.858050  0.391950  0.391950  1
