# generated using pymatgen
data_Ce2Y2O7
_symmetry_space_group_name_H-M   'P 1'
_cell_length_a   3.75973893
_cell_length_b   15.37190095
_cell_length_c   13.24719938
_cell_angle_alpha   30.48294912
_cell_angle_beta   55.41503396
_cell_angle_gamma   60.71393565
_symmetry_Int_Tables_number   1
_chemical_formula_structural   Ce2Y2O7
_chemical_formula_sum   'Ce4 Y4 O14'
_cell_volume   319.74893650
_cell_formula_units_Z   2
loop_
 _symmetry_equiv_pos_site_id
 _symmetry_equiv_pos_as_xyz
  1  'x, y, z'
loop_
 _atom_site_type_symbol
 _atom_site_label
 _atom_site_symmetry_multiplicity
 _atom_site_fract_x
 _atom_site_fract_y
 _atom_site_fract_z
 _atom_site_occupancy
  Ce  Ce0  1  0.991040  1.000000  0.004480  1
  Ce  Ce1  1  0.008960  0.500000  0.995520  1
  Ce  Ce2  1  0.000000  0.750000  0.000000  1
  Ce  Ce3  1  0.000000  0.250000  0.500000  1
  O  O4  1  0.249052  0.206232  0.169242  1
  O  O5  1  0.269452  0.500000  0.115274  1
  O  O6  1  0.252996  1.000000  0.623502  1
  O  O7  1  0.744789  0.261310  0.366296  1
  O  O8  1  0.255211  0.238690  0.633704  1
  O  O9  1  0.255211  0.761310  0.111085  1
  O  O10  1  0.730548  0.000000  0.884726  1
  O  O11  1  0.747004  0.500000  0.376498  1
  O  O12  1  0.216228  0.000000  0.141886  1
  O  O13  1  0.750948  0.293768  0.830758  1
  O  O14  1  0.750948  0.706232  0.418294  1
  O  O15  1  0.249052  0.793768  0.581706  1
  O  O16  1  0.783772  0.500000  0.858114  1
  O  O17  1  0.744789  0.738690  0.888915  1
  Y  Y18  1  0.000000  0.250000  0.000000  1
  Y  Y19  1  0.038343  0.500000  0.480828  1
  Y  Y20  1  0.000000  0.750000  0.500000  1
  Y  Y21  1  0.961657  0.000000  0.519172  1
