# generated using pymatgen
data_Nb2Co4O9
_symmetry_space_group_name_H-M   'P 1'
_cell_length_a   5.22172795
_cell_length_b   5.22172796
_cell_length_c   14.29696524
_cell_angle_alpha   90.00000000
_cell_angle_beta   90.00000000
_cell_angle_gamma   120.00000003
_symmetry_Int_Tables_number   1
_chemical_formula_structural   Nb2Co4O9
_chemical_formula_sum   'Nb4 Co8 O18'
_cell_volume   337.60041851
_cell_formula_units_Z   2
loop_
 _symmetry_equiv_pos_site_id
 _symmetry_equiv_pos_as_xyz
  1  'x, y, z'
loop_
 _atom_site_type_symbol
 _atom_site_label
 _atom_site_symmetry_multiplicity
 _atom_site_fract_x
 _atom_site_fract_y
 _atom_site_fract_z
 _atom_site_occupancy
  O  O0  1  0.321470  0.977549  0.583729  1
  O  O1  1  0.022451  0.343921  0.583729  1
  O  O2  1  0.656079  0.678530  0.583729  1
  O  O3  1  0.343921  0.022451  0.916271  1
  O  O4  1  0.678530  0.656079  0.916271  1
  O  O5  1  0.977549  0.321470  0.916271  1
  O  O6  1  0.678530  0.022451  0.416271  1
  O  O7  1  0.977549  0.656079  0.416271  1
  O  O8  1  0.343921  0.321470  0.416271  1
  O  O9  1  0.656079  0.977549  0.083729  1
  O  O10  1  0.321470  0.343921  0.083729  1
  O  O11  1  0.022451  0.678530  0.083729  1
  O  O12  1  0.000000  0.290111  0.250000  1
  O  O13  1  0.709889  0.709889  0.250000  1
  O  O14  1  0.290111  0.000000  0.250000  1
  O  O15  1  0.000000  0.709889  0.750000  1
  O  O16  1  0.290111  0.290111  0.750000  1
  O  O17  1  0.709889  0.000000  0.750000  1
  Co  Co18  1  0.333333  0.666667  0.484997  1
  Co  Co19  1  0.666667  0.333333  0.015003  1
  Co  Co20  1  0.666667  0.333333  0.515003  1
  Co  Co21  1  0.333333  0.666667  0.984997  1
  Co  Co22  1  0.333333  0.666667  0.693692  1
  Co  Co23  1  0.666667  0.333333  0.806308  1
  Co  Co24  1  0.666667  0.333333  0.306308  1
  Co  Co25  1  0.333333  0.666667  0.193692  1
  Nb  Nb26  1  0.000000  0.000000  0.641659  1
  Nb  Nb27  1  0.000000  0.000000  0.858341  1
  Nb  Nb28  1  0.000000  0.000000  0.358341  1
  Nb  Nb29  1  0.000000  0.000000  0.141659  1
