# generated using pymatgen
data_NbCrO4
_symmetry_space_group_name_H-M   'P 1'
_cell_length_a   4.55854903
_cell_length_b   11.75989036
_cell_length_c   4.97047878
_cell_angle_alpha   90.00000000
_cell_angle_beta   90.00000000
_cell_angle_gamma   90.00000000
_symmetry_Int_Tables_number   1
_chemical_formula_structural   NbCrO4
_chemical_formula_sum   'Nb4 Cr4 O16'
_cell_volume   266.45760932
_cell_formula_units_Z   4
loop_
 _symmetry_equiv_pos_site_id
 _symmetry_equiv_pos_as_xyz
  1  'x, y, z'
loop_
 _atom_site_type_symbol
 _atom_site_label
 _atom_site_symmetry_multiplicity
 _atom_site_fract_x
 _atom_site_fract_y
 _atom_site_fract_z
 _atom_site_occupancy
  Nb  Nb0  1  0.000000  0.170747  0.250000  1
  Nb  Nb1  1  0.000000  0.829253  0.750000  1
  Nb  Nb2  1  0.500000  0.670747  0.250000  1
  Nb  Nb3  1  0.500000  0.329253  0.750000  1
  Cr  Cr4  1  0.000000  0.433934  0.250000  1
  Cr  Cr5  1  0.000000  0.566066  0.750000  1
  Cr  Cr6  1  0.500000  0.066066  0.750000  1
  Cr  Cr7  1  0.500000  0.933934  0.250000  1
  O  O8  1  0.229833  0.308998  0.424220  1
  O  O9  1  0.229833  0.691002  0.924220  1
  O  O10  1  0.258449  0.060495  0.416403  1
  O  O11  1  0.258449  0.939505  0.916403  1
  O  O12  1  0.241551  0.439505  0.916403  1
  O  O13  1  0.241551  0.560495  0.416403  1
  O  O14  1  0.270167  0.191002  0.924220  1
  O  O15  1  0.270167  0.808998  0.424220  1
  O  O16  1  0.729833  0.191002  0.575780  1
  O  O17  1  0.729833  0.808998  0.075780  1
  O  O18  1  0.758449  0.439505  0.583597  1
  O  O19  1  0.758449  0.560495  0.083597  1
  O  O20  1  0.741551  0.060495  0.083597  1
  O  O21  1  0.741551  0.939505  0.583597  1
  O  O22  1  0.770167  0.691002  0.575780  1
  O  O23  1  0.770167  0.308998  0.075780  1
