# generated using pymatgen
data_NbFeO4
_symmetry_space_group_name_H-M   'P 1'
_cell_length_a   9.45796379
_cell_length_b   5.10295010
_cell_length_c   5.69909746
_cell_angle_alpha   89.96820180
_cell_angle_beta   89.96671171
_cell_angle_gamma   89.99546258
_symmetry_Int_Tables_number   1
_chemical_formula_structural   NbFeO4
_chemical_formula_sum   'Nb4 Fe4 O16'
_cell_volume   275.05839900
_cell_formula_units_Z   4
loop_
 _symmetry_equiv_pos_site_id
 _symmetry_equiv_pos_as_xyz
  1  'x, y, z'
loop_
 _atom_site_type_symbol
 _atom_site_label
 _atom_site_symmetry_multiplicity
 _atom_site_fract_x
 _atom_site_fract_y
 _atom_site_fract_z
 _atom_site_occupancy
  Nb  Nb0  1  0.247698  0.771189  0.330897  1
  Nb  Nb1  1  0.501900  0.271303  0.168816  1
  Nb  Nb2  1  0.748425  0.271234  0.668644  1
  Nb  Nb3  1  0.002106  0.770837  0.831049  1
  Fe  Fe4  1  0.254097  0.249466  0.673920  1
  Fe  Fe5  1  0.496060  0.749316  0.825208  1
  Fe  Fe6  1  0.753900  0.750189  0.325297  1
  Fe  Fe7  1  0.995929  0.249206  0.174022  1
  O  O8  1  0.115382  0.075699  0.893205  1
  O  O9  1  0.114823  0.577794  0.134518  1
  O  O10  1  0.134302  0.075576  0.393461  1
  O  O11  1  0.134882  0.577341  0.634782  1
  O  O12  1  0.365223  0.417350  0.386651  1
  O  O13  1  0.359189  0.907708  0.612456  1
  O  O14  1  0.384645  0.916341  0.113757  1
  O  O15  1  0.390579  0.407906  0.888071  1
  O  O16  1  0.615161  0.078552  0.865489  1
  O  O17  1  0.615255  0.575846  0.106801  1
  O  O18  1  0.635114  0.078219  0.365249  1
  O  O19  1  0.634984  0.576468  0.606871  1
  O  O20  1  0.859630  0.408962  0.387812  1
  O  O21  1  0.865502  0.917657  0.614182  1
  O  O22  1  0.884639  0.417507  0.886434  1
  O  O23  1  0.890576  0.908336  0.112406  1
