# generated using pymatgen
data_Ce4Y6O17
_symmetry_space_group_name_H-M   'P 1'
_cell_length_a   3.78911244
_cell_length_b   3.78911252
_cell_length_c   38.88225580
_cell_angle_alpha   60.83970296
_cell_angle_beta   60.83970225
_cell_angle_gamma   60.00000056
_symmetry_Int_Tables_number   1
_chemical_formula_structural   Ce4Y6O17
_chemical_formula_sum   'Ce4 Y6 O17'
_cell_volume   399.67640010
_cell_formula_units_Z   1
loop_
 _symmetry_equiv_pos_site_id
 _symmetry_equiv_pos_as_xyz
  1  'x, y, z'
loop_
 _atom_site_type_symbol
 _atom_site_label
 _atom_site_symmetry_multiplicity
 _atom_site_fract_x
 _atom_site_fract_y
 _atom_site_fract_z
 _atom_site_occupancy
  Ce  Ce0  1  0.006357  0.006357  0.698093  1
  Ce  Ce1  1  0.006603  0.006603  0.798019  1
  Ce  Ce2  1  0.006858  0.006858  0.597943  1
  Ce  Ce3  1  0.007529  0.007529  0.897741  1
  Y  Y4  1  0.008070  0.008070  0.997579  1
  Y  Y5  1  0.988561  0.988561  0.103432  1
  Y  Y6  1  0.010329  0.010329  0.196901  1
  Y  Y7  1  0.010454  0.010454  0.396864  1
  Y  Y8  1  0.989835  0.989835  0.503049  1
  Y  Y9  1  0.989337  0.989337  0.303199  1
  O  O10  1  0.248522  0.248522  0.125443  1
  O  O11  1  0.783354  0.783354  0.064994  1
  O  O12  1  0.249229  0.249229  0.325231  1
  O  O13  1  0.717019  0.717019  0.184894  1
  O  O14  1  0.784676  0.784676  0.264597  1
  O  O15  1  0.247689  0.247689  0.525693  1
  O  O16  1  0.717172  0.717172  0.384848  1
  O  O17  1  0.246571  0.246571  0.626029  1
  O  O18  1  0.784573  0.784573  0.464628  1
  O  O19  1  0.246535  0.246535  0.726039  1
  O  O20  1  0.748196  0.748196  0.575541  1
  O  O21  1  0.246434  0.246434  0.826070  1
  O  O22  1  0.747729  0.747729  0.675681  1
  O  O23  1  0.249126  0.249126  0.925262  1
  O  O24  1  0.747985  0.747985  0.775605  1
  O  O25  1  0.749378  0.749378  0.875187  1
  O  O26  1  0.711879  0.711879  0.986436  1
