# generated using pymatgen
data_NbVO4
_symmetry_space_group_name_H-M   'P 1'
_cell_length_a   4.58130114
_cell_length_b   4.99693674
_cell_length_c   12.77571120
_cell_angle_alpha   90.00000000
_cell_angle_beta   111.18115215
_cell_angle_gamma   90.00000000
_symmetry_Int_Tables_number   1
_chemical_formula_structural   NbVO4
_chemical_formula_sum   'Nb4 V4 O16'
_cell_volume   272.70929146
_cell_formula_units_Z   4
loop_
 _symmetry_equiv_pos_site_id
 _symmetry_equiv_pos_as_xyz
  1  'x, y, z'
loop_
 _atom_site_type_symbol
 _atom_site_label
 _atom_site_symmetry_multiplicity
 _atom_site_fract_x
 _atom_site_fract_y
 _atom_site_fract_z
 _atom_site_occupancy
  Nb  Nb0  1  0.173609  0.254467  0.672855  1
  Nb  Nb1  1  0.173609  0.245533  0.172855  1
  Nb  Nb2  1  0.826391  0.754467  0.827145  1
  Nb  Nb3  1  0.826391  0.745533  0.327145  1
  V  V4  1  0.433974  0.251390  0.933832  1
  V  V5  1  0.433974  0.248610  0.433832  1
  V  V6  1  0.566026  0.751390  0.566168  1
  V  V7  1  0.566026  0.748610  0.066168  1
  O  O8  1  0.077792  0.073340  0.808108  1
  O  O9  1  0.193155  0.585188  0.937344  1
  O  O10  1  0.077792  0.426660  0.308108  1
  O  O11  1  0.538280  0.429501  0.807833  1
  O  O12  1  0.193155  0.914812  0.437344  1
  O  O13  1  0.681843  0.915918  0.937994  1
  O  O14  1  0.318157  0.415918  0.562006  1
  O  O15  1  0.461720  0.929501  0.692167  1
  O  O16  1  0.538280  0.070499  0.307833  1
  O  O17  1  0.681843  0.584082  0.437994  1
  O  O18  1  0.318157  0.084082  0.062006  1
  O  O19  1  0.806845  0.085188  0.562656  1
  O  O20  1  0.461720  0.570499  0.192167  1
  O  O21  1  0.922208  0.573340  0.691892  1
  O  O22  1  0.806845  0.414812  0.062656  1
  O  O23  1  0.922208  0.926660  0.191892  1
