# generated using pymatgen
data_NbV2O7
_symmetry_space_group_name_H-M   'P 1'
_cell_length_a   8.91529643
_cell_length_b   8.91528870
_cell_length_c   8.91531303
_cell_angle_alpha   90.00098538
_cell_angle_beta   89.99743139
_cell_angle_gamma   89.99813364
_symmetry_Int_Tables_number   1
_chemical_formula_structural   NbV2O7
_chemical_formula_sum   'Nb4 V8 O28'
_cell_volume   708.61084594
_cell_formula_units_Z   4
loop_
 _symmetry_equiv_pos_site_id
 _symmetry_equiv_pos_as_xyz
  1  'x, y, z'
loop_
 _atom_site_type_symbol
 _atom_site_label
 _atom_site_symmetry_multiplicity
 _atom_site_fract_x
 _atom_site_fract_y
 _atom_site_fract_z
 _atom_site_occupancy
  Nb  Nb0  1  0.000000  0.000001  0.999999  1
  Nb  Nb1  1  0.999999  0.499998  0.499997  1
  Nb  Nb2  1  0.500001  0.000000  0.500001  1
  Nb  Nb3  1  0.500001  0.499997  -0.000000  1
  V  V4  1  0.115585  0.884414  0.384407  1
  V  V5  1  0.115593  0.615585  0.884411  1
  V  V6  1  0.384403  0.384400  0.384404  1
  V  V7  1  0.384401  0.115605  0.884399  1
  V  V8  1  0.615597  0.615601  0.615594  1
  V  V9  1  0.615598  0.884394  0.115602  1
  V  V10  1  0.884415  0.115588  0.615592  1
  V  V11  1  0.884408  0.384416  0.115591  1
  O  O12  1  0.000004  0.999996  0.499996  1
  O  O13  1  0.000005  0.500006  0.999994  1
  O  O14  1  0.061490  0.698222  0.410373  1
  O  O15  1  0.061486  0.801804  0.910371  1
  O  O16  1  0.089624  0.561486  0.698193  1
  O  O17  1  0.089629  0.938509  0.198224  1
  O  O18  1  0.198193  0.089621  0.938515  1
  O  O19  1  0.198191  0.410376  0.438517  1
  O  O20  1  0.301796  0.589631  0.938512  1
  O  O21  1  0.301775  0.910371  0.438509  1
  O  O22  1  0.410372  0.061486  0.698203  1
  O  O23  1  0.410371  0.438514  0.198190  1
  O  O24  1  0.438512  0.301797  0.910372  1
  O  O25  1  0.438516  0.198191  0.410377  1
  O  O26  1  0.499997  0.499995  0.499996  1
  O  O27  1  0.500002  0.999998  0.000003  1
  O  O28  1  0.561490  0.698208  0.089630  1
  O  O29  1  0.561481  0.801819  0.589621  1
  O  O30  1  0.589626  0.561482  0.801819  1
  O  O31  1  0.589629  0.938513  0.301793  1
  O  O32  1  0.698218  0.089627  0.561489  1
  O  O33  1  0.698188  0.410373  0.061485  1
  O  O34  1  0.801820  0.589622  0.561482  1
  O  O35  1  0.801801  0.910377  0.061485  1
  O  O36  1  0.910374  0.061489  0.801780  1
  O  O37  1  0.910381  0.438519  0.301823  1
  O  O38  1  0.938518  0.198182  0.089624  1
  O  O39  1  0.938513  0.301786  0.589626  1
