# generated using pymatgen
data_Nb2Zn3O8
_symmetry_space_group_name_H-M   'P 1'
_cell_length_a   5.27124549
_cell_length_b   5.98027966
_cell_length_c   10.13770883
_cell_angle_alpha   107.15467292
_cell_angle_beta   90.13547244
_cell_angle_gamma   90.00000001
_symmetry_Int_Tables_number   1
_chemical_formula_structural   Nb2Zn3O8
_chemical_formula_sum   'Nb4 Zn6 O16'
_cell_volume   305.35804428
_cell_formula_units_Z   2
loop_
 _symmetry_equiv_pos_site_id
 _symmetry_equiv_pos_as_xyz
  1  'x, y, z'
loop_
 _atom_site_type_symbol
 _atom_site_label
 _atom_site_symmetry_multiplicity
 _atom_site_fract_x
 _atom_site_fract_y
 _atom_site_fract_z
 _atom_site_occupancy
  O  O0  1  0.914270  0.432907  0.116170  1
  O  O1  1  0.585730  0.316737  0.883830  1
  O  O2  1  0.085730  0.567093  0.883830  1
  O  O3  1  0.414270  0.683263  0.116170  1
  O  O4  1  0.575466  0.815209  0.860657  1
  O  O5  1  0.924534  0.954551  0.139343  1
  O  O6  1  0.424534  0.184791  0.139343  1
  O  O7  1  0.075466  0.045449  0.860657  1
  O  O8  1  0.631518  0.548143  0.385770  1
  O  O9  1  0.868482  0.162373  0.614230  1
  O  O10  1  0.442774  0.922910  0.640170  1
  O  O11  1  0.057226  0.282740  0.359830  1
  O  O12  1  0.557226  0.077090  0.359830  1
  O  O13  1  0.942774  0.717260  0.640170  1
  O  O14  1  0.131518  0.837627  0.385770  1
  O  O15  1  0.368482  0.451857  0.614230  1
  Zn  Zn16  1  0.250000  0.346630  0.000000  1
  Zn  Zn17  1  0.750000  0.653370  0.000000  1
  Zn  Zn18  1  0.238405  0.124828  0.558506  1
  Zn  Zn19  1  0.261595  0.566323  0.441494  1
  Zn  Zn20  1  0.738405  0.433677  0.558506  1
  Zn  Zn21  1  0.761595  0.875172  0.441494  1
  Nb  Nb22  1  0.263095  0.951108  0.229152  1
  Nb  Nb23  1  0.236905  0.721956  0.770848  1
  Nb  Nb24  1  0.736905  0.048892  0.770848  1
  Nb  Nb25  1  0.763095  0.278044  0.229152  1
