# generated using pymatgen
data_CeZn3
_symmetry_space_group_name_H-M   'P 1'
_cell_length_a   4.61896489
_cell_length_b   6.54421806
_cell_length_c   10.37998067
_cell_angle_alpha   90.00000000
_cell_angle_beta   90.00000000
_cell_angle_gamma   90.00000000
_symmetry_Int_Tables_number   1
_chemical_formula_structural   CeZn3
_chemical_formula_sum   'Ce4 Zn12'
_cell_volume   313.76100533
_cell_formula_units_Z   4
loop_
 _symmetry_equiv_pos_site_id
 _symmetry_equiv_pos_as_xyz
  1  'x, y, z'
loop_
 _atom_site_type_symbol
 _atom_site_label
 _atom_site_symmetry_multiplicity
 _atom_site_fract_x
 _atom_site_fract_y
 _atom_site_fract_z
 _atom_site_occupancy
  Ce  Ce0  1  0.750000  0.750000  0.648264  1
  Ce  Ce1  1  0.250000  0.750000  0.148264  1
  Ce  Ce2  1  0.250000  0.250000  0.351736  1
  Ce  Ce3  1  0.750000  0.250000  0.851736  1
  Zn  Zn4  1  0.250000  0.250000  0.049887  1
  Zn  Zn5  1  0.250000  0.443767  0.630894  1
  Zn  Zn6  1  0.750000  0.556233  0.369106  1
  Zn  Zn7  1  0.750000  0.056233  0.130894  1
  Zn  Zn8  1  0.250000  0.056233  0.630894  1
  Zn  Zn9  1  0.250000  0.943767  0.869106  1
  Zn  Zn10  1  0.750000  0.943767  0.369106  1
  Zn  Zn11  1  0.750000  0.250000  0.549887  1
  Zn  Zn12  1  0.750000  0.750000  0.950113  1
  Zn  Zn13  1  0.750000  0.443767  0.130894  1
  Zn  Zn14  1  0.250000  0.556233  0.869106  1
  Zn  Zn15  1  0.250000  0.750000  0.450113  1
