# generated using pymatgen
data_NbAgO2
_symmetry_space_group_name_H-M   'P 1'
_cell_length_a   12.00427774
_cell_length_b   5.43486344
_cell_length_c   5.43486344
_cell_angle_alpha   87.75065791
_cell_angle_beta   90.00000000
_cell_angle_gamma   90.00000000
_symmetry_Int_Tables_number   1
_chemical_formula_structural   NbAgO2
_chemical_formula_sum   'Nb6 Ag6 O12'
_cell_volume   354.30603407
_cell_formula_units_Z   6
loop_
 _symmetry_equiv_pos_site_id
 _symmetry_equiv_pos_as_xyz
  1  'x, y, z'
loop_
 _atom_site_type_symbol
 _atom_site_label
 _atom_site_symmetry_multiplicity
 _atom_site_fract_x
 _atom_site_fract_y
 _atom_site_fract_z
 _atom_site_occupancy
  Nb  Nb0  1  0.000000  0.000000  0.000000  1
  Nb  Nb1  1  0.332932  0.000000  0.000000  1
  Nb  Nb2  1  0.332932  0.500000  0.500000  1
  Nb  Nb3  1  0.667068  0.000000  0.000000  1
  Nb  Nb4  1  0.667068  0.500000  0.500000  1
  Nb  Nb5  1  0.000000  0.500000  0.500000  1
  Ag  Ag6  1  0.114811  0.500000  0.000000  1
  Ag  Ag7  1  0.220808  0.000000  0.500000  1
  Ag  Ag8  1  0.500000  0.500000  0.000000  1
  Ag  Ag9  1  0.500000  0.000000  0.500000  1
  Ag  Ag10  1  0.885189  0.500000  0.000000  1
  Ag  Ag11  1  0.779192  0.000000  0.500000  1
  O  O12  1  0.164996  0.000000  0.000000  1
  O  O13  1  0.164996  0.500000  0.500000  1
  O  O14  1  0.329257  0.307305  0.192695  1
  O  O15  1  0.329257  0.692695  0.807305  1
  O  O16  1  0.500000  0.000000  0.000000  1
  O  O17  1  0.500000  0.500000  0.500000  1
  O  O18  1  0.670743  0.307305  0.192695  1
  O  O19  1  0.670743  0.692695  0.807305  1
  O  O20  1  0.835004  0.000000  0.000000  1
  O  O21  1  0.835004  0.500000  0.500000  1
  O  O22  1  0.000000  0.170214  0.670214  1
  O  O23  1  0.000000  0.829786  0.329786  1
