# generated using pymatgen
data_Nb6Co7
_symmetry_space_group_name_H-M   'P 1'
_cell_length_a   10.78192259
_cell_length_b   10.78192240
_cell_length_c   10.78192278
_cell_angle_alpha   26.63334340
_cell_angle_beta   26.63334394
_cell_angle_gamma   26.63334559
_symmetry_Int_Tables_number   1
_chemical_formula_structural   Nb6Co7
_chemical_formula_sum   'Nb6 Co7'
_cell_volume   222.05491795
_cell_formula_units_Z   1
loop_
 _symmetry_equiv_pos_site_id
 _symmetry_equiv_pos_as_xyz
  1  'x, y, z'
loop_
 _atom_site_type_symbol
 _atom_site_label
 _atom_site_symmetry_multiplicity
 _atom_site_fract_x
 _atom_site_fract_y
 _atom_site_fract_z
 _atom_site_occupancy
  Nb  Nb0  1  0.202909  0.202909  0.202909  1
  Nb  Nb1  1  0.116097  0.116097  0.116097  1
  Nb  Nb2  1  0.553821  0.553821  0.553821  1
  Nb  Nb3  1  0.797091  0.797091  0.797091  1
  Nb  Nb4  1  0.446179  0.446179  0.446179  1
  Nb  Nb5  1  0.883903  0.883903  0.883903  1
  Co  Co6  1  0.122944  0.591971  0.122944  1
  Co  Co7  1  0.122944  0.122944  0.591971  1
  Co  Co8  1  0.877056  0.877056  0.408029  1
  Co  Co9  1  0.408029  0.877056  0.877056  1
  Co  Co10  1  0.000000  0.000000  0.000000  1
  Co  Co11  1  0.591971  0.122944  0.122944  1
  Co  Co12  1  0.877056  0.408029  0.877056  1
