# generated using pymatgen
data_Ce2Zn17
_symmetry_space_group_name_H-M   'P 1'
_cell_length_a   8.98707572
_cell_length_b   8.98689258
_cell_length_c   8.80802794
_cell_angle_alpha   90.00226650
_cell_angle_beta   89.99759662
_cell_angle_gamma   119.99957947
_symmetry_Int_Tables_number   1
_chemical_formula_structural   Ce2Zn17
_chemical_formula_sum   'Ce4 Zn34'
_cell_volume   616.08283201
_cell_formula_units_Z   2
loop_
 _symmetry_equiv_pos_site_id
 _symmetry_equiv_pos_as_xyz
  1  'x, y, z'
loop_
 _atom_site_type_symbol
 _atom_site_label
 _atom_site_symmetry_multiplicity
 _atom_site_fract_x
 _atom_site_fract_y
 _atom_site_fract_z
 _atom_site_occupancy
  Ce  Ce0  1  0.333275  0.666671  0.749996  1
  Ce  Ce1  1  0.666701  0.333316  0.250005  1
  Ce  Ce2  1  0.999960  -0.000030  0.250009  1
  Ce  Ce3  1  0.000032  0.000024  0.749992  1
  Zn  Zn4  1  0.329841  0.959661  0.250002  1
  Zn  Zn5  1  0.669968  0.040197  0.749994  1
  Zn  Zn6  1  0.040305  0.370130  0.249992  1
  Zn  Zn7  1  0.629830  0.670128  0.250010  1
  Zn  Zn8  1  0.370247  0.330067  0.749984  1
  Zn  Zn9  1  0.959791  0.629771  0.750011  1
  Zn  Zn10  1  0.370237  0.040187  0.750003  1
  Zn  Zn11  1  0.669935  0.629780  0.749992  1
  Zn  Zn12  1  0.959790  0.330012  0.750002  1
  Zn  Zn13  1  0.040314  0.670165  0.250006  1
  Zn  Zn14  1  0.329855  0.370177  0.250011  1
  Zn  Zn15  1  0.629842  0.959684  0.249992  1
  Zn  Zn16  1  0.499975  -0.000039  -0.000085  1
  Zn  Zn17  1  0.499955  -0.000082  0.500090  1
  Zn  Zn18  1  0.000071  0.500036  -0.000089  1
  Zn  Zn19  1  0.499953  0.500048  -0.000093  1
  Zn  Zn20  1  0.499958  0.500036  0.500077  1
  Zn  Zn21  1  0.000055  0.500032  0.500094  1
  Zn  Zn22  1  0.333338  0.666686  0.100663  1
  Zn  Zn23  1  0.666671  0.333324  0.600810  1
  Zn  Zn24  1  0.666676  0.333354  0.899178  1
  Zn  Zn25  1  0.333315  0.666661  0.399354  1
  Zn  Zn26  1  0.162087  0.324192  0.977896  1
  Zn  Zn27  1  0.837947  0.675891  0.477914  1
  Zn  Zn28  1  0.675811  0.837927  0.977919  1
  Zn  Zn29  1  0.162081  0.837912  0.977868  1
  Zn  Zn30  1  0.837946  0.162056  0.477910  1
  Zn  Zn31  1  0.324125  0.162058  0.477913  1
  Zn  Zn32  1  0.837958  0.675872  0.022082  1
  Zn  Zn33  1  0.837950  0.162058  0.022104  1
  Zn  Zn34  1  0.324121  0.162049  0.022073  1
  Zn  Zn35  1  0.675821  0.837910  0.522086  1
  Zn  Zn36  1  0.162085  0.837901  0.522124  1
  Zn  Zn37  1  0.162074  0.324173  0.522111  1
