# generated using pymatgen
data_Nb4Ag2O11
_symmetry_space_group_name_H-M   'P 1'
_cell_length_a   13.24308657
_cell_length_b   13.24308657
_cell_length_c   13.24308617
_cell_angle_alpha   27.34979835
_cell_angle_beta   27.34979835
_cell_angle_gamma   27.34980500
_symmetry_Int_Tables_number   1
_chemical_formula_structural   Nb4Ag2O11
_chemical_formula_sum   'Nb8 Ag4 O22'
_cell_volume   432.59593303
_cell_formula_units_Z   2
loop_
 _symmetry_equiv_pos_site_id
 _symmetry_equiv_pos_as_xyz
  1  'x, y, z'
loop_
 _atom_site_type_symbol
 _atom_site_label
 _atom_site_symmetry_multiplicity
 _atom_site_fract_x
 _atom_site_fract_y
 _atom_site_fract_z
 _atom_site_occupancy
  Nb  Nb0  1  0.003937  0.003937  0.003937  1
  Nb  Nb1  1  0.503938  0.503938  0.503938  1
  Nb  Nb2  1  0.621984  0.885072  0.247391  1
  Nb  Nb3  1  0.247392  0.621983  0.885072  1
  Nb  Nb4  1  0.885071  0.247391  0.621985  1
  Nb  Nb5  1  0.385072  0.121984  0.747391  1
  Nb  Nb6  1  0.121984  0.747391  0.385071  1
  Nb  Nb7  1  0.747391  0.385073  0.121983  1
  Ag  Ag8  1  0.328617  0.328617  0.328617  1
  Ag  Ag9  1  0.828617  0.828617  0.828617  1
  Ag  Ag10  1  0.173909  0.173909  0.173909  1
  Ag  Ag11  1  0.673909  0.673909  0.673909  1
  O  O12  1  0.716988  0.947396  0.235957  1
  O  O13  1  0.235958  0.716986  0.947397  1
  O  O14  1  0.947395  0.235959  0.716987  1
  O  O15  1  0.447395  0.216987  0.735959  1
  O  O16  1  0.216988  0.735958  0.447395  1
  O  O17  1  0.735957  0.447396  0.216987  1
  O  O18  1  0.092980  0.092980  0.092980  1
  O  O19  1  0.592980  0.592980  0.592980  1
  O  O20  1  0.403161  0.403161  0.403161  1
  O  O21  1  0.903161  0.903161  0.903161  1
  O  O22  1  0.991525  0.502583  0.251176  1
  O  O23  1  0.251176  0.991525  0.502584  1
  O  O24  1  0.502585  0.251175  0.991525  1
  O  O25  1  0.002586  0.491525  0.751174  1
  O  O26  1  0.491526  0.751175  0.002584  1
  O  O27  1  0.751175  0.002584  0.491526  1
  O  O28  1  0.255104  0.546579  0.784940  1
  O  O29  1  0.784940  0.255104  0.546580  1
  O  O30  1  0.546580  0.784938  0.255105  1
  O  O31  1  0.046579  0.755106  0.284938  1
  O  O32  1  0.755104  0.284939  0.046580  1
  O  O33  1  0.284938  0.046580  0.755105  1
