# generated using pymatgen
data_Nb2CdO6
_symmetry_space_group_name_H-M   'P 1'
_cell_length_a   15.04687975
_cell_length_b   5.96191064
_cell_length_c   5.23063130
_cell_angle_alpha   90.00000000
_cell_angle_beta   90.00000000
_cell_angle_gamma   90.00000000
_symmetry_Int_Tables_number   1
_chemical_formula_structural   Nb2CdO6
_chemical_formula_sum   'Nb8 Cd4 O24'
_cell_volume   469.23027023
_cell_formula_units_Z   4
loop_
 _symmetry_equiv_pos_site_id
 _symmetry_equiv_pos_as_xyz
  1  'x, y, z'
loop_
 _atom_site_type_symbol
 _atom_site_label
 _atom_site_symmetry_multiplicity
 _atom_site_fract_x
 _atom_site_fract_y
 _atom_site_fract_z
 _atom_site_occupancy
  Nb  Nb0  1  0.165119  0.318470  0.290680  1
  Nb  Nb1  1  0.165119  0.681530  0.790680  1
  Nb  Nb2  1  0.334881  0.181530  0.790680  1
  Nb  Nb3  1  0.334881  0.818470  0.290680  1
  Nb  Nb4  1  0.665119  0.181530  0.709320  1
  Nb  Nb5  1  0.665119  0.818470  0.209320  1
  Nb  Nb6  1  0.834881  0.318470  0.209320  1
  Nb  Nb7  1  0.834881  0.681530  0.709320  1
  Cd  Cd8  1  0.000000  0.201765  0.750000  1
  Cd  Cd9  1  0.000000  0.798235  0.250000  1
  Cd  Cd10  1  0.500000  0.298235  0.250000  1
  Cd  Cd11  1  0.500000  0.701765  0.750000  1
  O  O12  1  0.086980  0.109295  0.411129  1
  O  O13  1  0.086980  0.890705  0.911129  1
  O  O14  1  0.101502  0.412839  0.982632  1
  O  O15  1  0.101502  0.587161  0.482632  1
  O  O16  1  0.242963  0.363596  0.620581  1
  O  O17  1  0.242963  0.636404  0.120581  1
  O  O18  1  0.257037  0.136404  0.120581  1
  O  O19  1  0.257037  0.863596  0.620581  1
  O  O20  1  0.398498  0.087161  0.482632  1
  O  O21  1  0.398498  0.912839  0.982632  1
  O  O22  1  0.413020  0.390705  0.911129  1
  O  O23  1  0.413020  0.609295  0.411129  1
  O  O24  1  0.586980  0.390705  0.588871  1
  O  O25  1  0.586980  0.609295  0.088871  1
  O  O26  1  0.601502  0.087161  0.017368  1
  O  O27  1  0.601502  0.912839  0.517368  1
  O  O28  1  0.742963  0.136404  0.379419  1
  O  O29  1  0.742963  0.863596  0.879419  1
  O  O30  1  0.757037  0.363596  0.879419  1
  O  O31  1  0.757037  0.636404  0.379419  1
  O  O32  1  0.898498  0.412839  0.517368  1
  O  O33  1  0.898498  0.587161  0.017368  1
  O  O34  1  0.913020  0.109295  0.088871  1
  O  O35  1  0.913020  0.890705  0.588871  1
