# generated using pymatgen
data_Nb2CuO6
_symmetry_space_group_name_H-M   'P 1'
_cell_length_a   5.24710052
_cell_length_b   5.67929106
_cell_length_c   14.35922951
_cell_angle_alpha   90.00000000
_cell_angle_beta   90.00000000
_cell_angle_gamma   90.00049584
_symmetry_Int_Tables_number   1
_chemical_formula_structural   Nb2CuO6
_chemical_formula_sum   'Nb8 Cu4 O24'
_cell_volume   427.90232658
_cell_formula_units_Z   4
loop_
 _symmetry_equiv_pos_site_id
 _symmetry_equiv_pos_as_xyz
  1  'x, y, z'
loop_
 _atom_site_type_symbol
 _atom_site_label
 _atom_site_symmetry_multiplicity
 _atom_site_fract_x
 _atom_site_fract_y
 _atom_site_fract_z
 _atom_site_occupancy
  O  O0  1  0.528761  0.366241  0.740020  1
  O  O1  1  0.471239  0.133759  0.240020  1
  O  O2  1  0.471239  0.633759  0.259980  1
  O  O3  1  0.528761  0.866241  0.759980  1
  O  O4  1  0.673175  0.414079  0.085445  1
  O  O5  1  0.326825  0.085921  0.585445  1
  O  O6  1  0.326825  0.585921  0.914555  1
  O  O7  1  0.673175  0.914079  0.414555  1
  O  O8  1  0.615289  0.399606  0.407876  1
  O  O9  1  0.384711  0.100394  0.907876  1
  O  O10  1  0.384711  0.600394  0.592124  1
  O  O11  1  0.615289  0.899606  0.092124  1
  O  O12  1  0.884712  0.899590  0.907875  1
  O  O13  1  0.115288  0.600410  0.407875  1
  O  O14  1  0.115288  0.100410  0.092125  1
  O  O15  1  0.884712  0.399590  0.592125  1
  O  O16  1  0.826833  0.914058  0.585430  1
  O  O17  1  0.173167  0.585942  0.085430  1
  O  O18  1  0.173167  0.085942  0.414570  1
  O  O19  1  0.826833  0.414058  0.914570  1
  O  O20  1  0.971244  0.866232  0.240013  1
  O  O21  1  0.028756  0.633768  0.740013  1
  O  O22  1  0.028756  0.133768  0.759987  1
  O  O23  1  0.971244  0.366232  0.259987  1
  Cu  Cu24  1  0.750034  0.670946  0.000004  1
  Cu  Cu25  1  0.249966  0.829054  0.500004  1
  Cu  Cu26  1  0.249966  0.329054  0.999996  1
  Cu  Cu27  1  0.750034  0.170946  0.499996  1
  Nb  Nb28  1  0.201965  0.316337  0.660121  1
  Nb  Nb29  1  0.798035  0.183663  0.160121  1
  Nb  Nb30  1  0.798035  0.683663  0.339879  1
  Nb  Nb31  1  0.201965  0.816337  0.839879  1
  Nb  Nb32  1  0.298037  0.816333  0.160118  1
  Nb  Nb33  1  0.701963  0.683667  0.660118  1
  Nb  Nb34  1  0.701963  0.183667  0.839882  1
  Nb  Nb35  1  0.298037  0.316333  0.339882  1
