# generated using pymatgen
data_Nb2FeO6
_symmetry_space_group_name_H-M   'P 1'
_cell_length_a   5.46800415
_cell_length_b   5.89848749
_cell_length_c   15.28269579
_cell_angle_alpha   90.00179297
_cell_angle_beta   89.98889916
_cell_angle_gamma   89.99594302
_symmetry_Int_Tables_number   1
_chemical_formula_structural   Nb2FeO6
_chemical_formula_sum   'Nb8 Fe4 O24'
_cell_volume   492.91207451
_cell_formula_units_Z   4
loop_
 _symmetry_equiv_pos_site_id
 _symmetry_equiv_pos_as_xyz
  1  'x, y, z'
loop_
 _atom_site_type_symbol
 _atom_site_label
 _atom_site_symmetry_multiplicity
 _atom_site_fract_x
 _atom_site_fract_y
 _atom_site_fract_z
 _atom_site_occupancy
  Nb  Nb0  1  0.935792  0.180869  0.162446  1
  Nb  Nb1  1  0.564581  0.680735  0.662369  1
  Nb  Nb2  1  0.064692  0.319211  0.662363  1
  Nb  Nb3  1  0.435753  0.819141  0.162469  1
  Nb  Nb4  1  0.064401  0.819155  0.837573  1
  Nb  Nb5  1  0.564364  0.180814  0.837606  1
  Nb  Nb6  1  0.935794  0.681225  0.337670  1
  Nb  Nb7  1  0.435747  0.318742  0.337694  1
  Fe  Fe8  1  0.748619  0.159799  0.500332  1
  Fe  Fe9  1  0.249992  0.340541  0.000079  1
  Fe  Fe10  1  0.248776  0.840415  0.500242  1
  Fe  Fe11  1  0.749901  0.659958  0.000030  1
  O  O12  1  0.775050  0.933304  0.106183  1
  O  O13  1  0.051379  0.597172  0.922786  1
  O  O14  1  0.051648  0.097829  0.577275  1
  O  O15  1  0.448302  0.096977  0.422668  1
  O  O16  1  0.174955  0.704954  0.233273  1
  O  O17  1  0.948234  0.903049  0.422641  1
  O  O18  1  0.225191  0.066576  0.893752  1
  O  O19  1  0.325344  0.204896  0.733365  1
  O  O20  1  0.325076  0.704763  0.766634  1
  O  O21  1  0.448543  0.597235  0.077273  1
  O  O22  1  0.725129  0.933321  0.893769  1
  O  O23  1  0.775081  0.433306  0.393629  1
  O  O24  1  0.175073  0.204869  0.266581  1
  O  O25  1  0.275032  0.066660  0.106190  1
  O  O26  1  0.225313  0.566789  0.606152  1
  O  O27  1  0.551503  0.402777  0.922832  1
  O  O28  1  0.275068  0.566649  0.393645  1
  O  O29  1  0.825305  0.795013  0.733358  1
  O  O30  1  0.825048  0.295024  0.766638  1
  O  O31  1  0.551588  0.902259  0.577275  1
  O  O32  1  0.948415  0.402775  0.077225  1
  O  O33  1  0.674951  0.294922  0.233275  1
  O  O34  1  0.675042  0.795112  0.266581  1
  O  O35  1  0.725313  0.433165  0.606129  1
