# generated using pymatgen
data_NbVO5
_symmetry_space_group_name_H-M   'P 1'
_cell_length_a   14.04660448
_cell_length_b   5.57737094
_cell_length_c   14.07553847
_cell_angle_alpha   90.00000000
_cell_angle_beta   120.38546176
_cell_angle_gamma   90.00000000
_symmetry_Int_Tables_number   1
_chemical_formula_structural   NbVO5
_chemical_formula_sum   'Nb8 V8 O40'
_cell_volume   951.25405733
_cell_formula_units_Z   8
loop_
 _symmetry_equiv_pos_site_id
 _symmetry_equiv_pos_as_xyz
  1  'x, y, z'
loop_
 _atom_site_type_symbol
 _atom_site_label
 _atom_site_symmetry_multiplicity
 _atom_site_fract_x
 _atom_site_fract_y
 _atom_site_fract_z
 _atom_site_occupancy
  Nb  Nb0  1  0.059057  0.258120  0.857302  1
  Nb  Nb1  1  0.059057  0.241880  0.357302  1
  Nb  Nb2  1  0.440737  0.753186  0.798934  1
  Nb  Nb3  1  0.559263  0.253186  0.701066  1
  Nb  Nb4  1  0.440737  0.746814  0.298934  1
  Nb  Nb5  1  0.559263  0.246814  0.201066  1
  Nb  Nb6  1  0.940943  0.758120  0.642698  1
  Nb  Nb7  1  0.940943  0.741880  0.142698  1
  V  V8  1  0.153969  0.733539  0.562391  1
  V  V9  1  0.345839  0.240291  0.907443  1
  V  V10  1  0.153969  0.766461  0.062391  1
  V  V11  1  0.345839  0.259709  0.407443  1
  V  V12  1  0.654161  0.740291  0.592557  1
  V  V13  1  0.846031  0.233539  0.937609  1
  V  V14  1  0.654161  0.759709  0.092557  1
  V  V15  1  0.846031  0.266461  0.437609  1
  O  O16  1  0.008541  0.967391  0.767354  1
  O  O17  1  0.115608  0.544544  0.964566  1
  O  O18  1  0.074816  0.758396  0.625687  1
  O  O19  1  0.204740  0.254289  0.867752  1
  O  O20  1  0.008541  0.532609  0.267354  1
  O  O21  1  0.115608  0.955456  0.464566  1
  O  O22  1  0.132960  0.458133  0.501147  1
  O  O23  1  0.375610  0.962851  0.874394  1
  O  O24  1  0.374491  0.459671  0.840884  1
  O  O25  1  0.294912  0.769588  0.662984  1
  O  O26  1  0.074816  0.741604  0.125687  1
  O  O27  1  0.204740  0.245711  0.367752  1
  O  O28  1  0.573911  0.716255  0.950235  1
  O  O29  1  0.498555  0.025519  0.762247  1
  O  O30  1  0.501445  0.525519  0.737753  1
  O  O31  1  0.132960  0.041867  0.001146  1
  O  O32  1  0.426089  0.216255  0.549765  1
  O  O33  1  0.375610  0.537149  0.374394  1
  O  O34  1  0.374491  0.040329  0.340884  1
  O  O35  1  0.294912  0.730412  0.162984  1
  O  O36  1  0.705088  0.269588  0.837016  1
  O  O37  1  0.625509  0.959671  0.659116  1
  O  O38  1  0.624390  0.462851  0.625606  1
  O  O39  1  0.573911  0.783745  0.450235  1
  O  O40  1  0.867040  0.958133  0.998853  1
  O  O41  1  0.498555  0.474481  0.262247  1
  O  O42  1  0.501445  0.974481  0.237753  1
  O  O43  1  0.426089  0.283745  0.049765  1
  O  O44  1  0.795260  0.754289  0.632248  1
  O  O45  1  0.925184  0.258396  0.874313  1
  O  O46  1  0.705088  0.230412  0.337016  1
  O  O47  1  0.625509  0.540329  0.159116  1
  O  O48  1  0.624390  0.037149  0.125606  1
  O  O49  1  0.867040  0.541867  0.498854  1
  O  O50  1  0.884392  0.044545  0.535434  1
  O  O51  1  0.991459  0.467391  0.732646  1
  O  O52  1  0.795260  0.745711  0.132248  1
  O  O53  1  0.925184  0.241604  0.374313  1
  O  O54  1  0.884392  0.455456  0.035434  1
  O  O55  1  0.991459  0.032609  0.232646  1
