# generated using pymatgen
data_Nb9VO25
_symmetry_space_group_name_H-M   'P 1'
_cell_length_a   3.88075791
_cell_length_b   11.50270558
_cell_length_c   11.50270558
_cell_angle_alpha   91.63062517
_cell_angle_beta   99.71159621
_cell_angle_gamma   80.28840379
_symmetry_Int_Tables_number   1
_chemical_formula_structural   Nb9VO25
_chemical_formula_sum   'Nb9 V1 O25'
_cell_volume   498.86043585
_cell_formula_units_Z   1
loop_
 _symmetry_equiv_pos_site_id
 _symmetry_equiv_pos_as_xyz
  1  'x, y, z'
loop_
 _atom_site_type_symbol
 _atom_site_label
 _atom_site_symmetry_multiplicity
 _atom_site_fract_x
 _atom_site_fract_y
 _atom_site_fract_z
 _atom_site_occupancy
  Nb  Nb0  1  0.000000  0.000000  0.000000  1
  Nb  Nb1  1  0.098953  0.112834  0.324614  1
  Nb  Nb2  1  0.898976  0.441547  0.208615  1
  Nb  Nb3  1  0.659477  0.208615  0.558453  1
  Nb  Nb4  1  0.225662  0.675386  0.112834  1
  Nb  Nb5  1  0.788214  0.324614  0.887166  1
  Nb  Nb6  1  0.309638  0.791385  0.441547  1
  Nb  Nb7  1  0.131908  0.558453  0.791385  1
  Nb  Nb8  1  0.887171  0.887166  0.675386  1
  V  V9  1  0.750000  0.500000  0.500000  1
  O  O10  1  0.500000  0.000000  0.000000  1
  O  O11  1  0.051877  0.066393  0.166912  1
  O  O12  1  0.828656  0.391531  0.040584  1
  O  O13  1  0.607915  0.139190  0.364151  1
  O  O14  1  0.995808  0.292375  0.268081  1
  O  O15  1  0.779812  0.040584  0.608469  1
  O  O16  1  0.358137  0.488999  0.194399  1
  O  O17  1  0.152864  0.194399  0.511001  1
  O  O18  1  0.756236  0.635849  0.139190  1
  O  O19  1  0.564255  0.371729  0.482157  1
  O  O20  1  0.917902  0.517843  0.371729  1
  O  O21  1  0.115035  0.833088  0.066393  1
  O  O22  1  0.711816  0.268081  0.707625  1
  O  O23  1  0.272272  0.731919  0.292375  1
  O  O24  1  0.881730  0.166912  0.933607  1
  O  O25  1  0.064017  0.482157  0.628271  1
  O  O26  1  0.453827  0.628271  0.517843  1
  O  O27  1  0.252894  0.364151  0.860810  1
  O  O28  1  0.836262  0.805601  0.488999  1
  O  O29  1  0.652737  0.511001  0.805601  1
  O  O30  1  0.211928  0.959416  0.391531  1
  O  O31  1  0.020103  0.707625  0.731919  1
  O  O32  1  0.382955  0.860810  0.635849  1
  O  O33  1  0.179604  0.608469  0.959416  1
  O  O34  1  0.951359  0.933607  0.833088  1
