# generated using pymatgen
data_Nd5(Mo16O27)2
_symmetry_space_group_name_H-M   'P 1'
_cell_length_a   9.39951731
_cell_length_b   11.16677484
_cell_length_c   24.84724415
_cell_angle_alpha   100.47656351
_cell_angle_beta   90.00000000
_cell_angle_gamma   90.00000000
_symmetry_Int_Tables_number   1
_chemical_formula_structural   Nd5(Mo16O27)2
_chemical_formula_sum   'Nd10 Mo64 O108'
_cell_volume   2564.54632575
_cell_formula_units_Z   2
loop_
 _symmetry_equiv_pos_site_id
 _symmetry_equiv_pos_as_xyz
  1  'x, y, z'
loop_
 _atom_site_type_symbol
 _atom_site_label
 _atom_site_symmetry_multiplicity
 _atom_site_fract_x
 _atom_site_fract_y
 _atom_site_fract_z
 _atom_site_occupancy
  Nd  Nd0  1  0.511854  0.862956  0.403708  1
  Nd  Nd1  1  0.955686  0.979784  0.183967  1
  Nd  Nd2  1  0.455686  0.520216  0.316033  1
  Nd  Nd3  1  0.988146  0.362956  0.903708  1
  Nd  Nd4  1  0.544314  0.479784  0.683967  1
  Nd  Nd5  1  0.488146  0.137044  0.596292  1
  Nd  Nd6  1  0.044314  0.020216  0.816033  1
  Nd  Nd7  1  0.500000  0.000000  0.000000  1
  Nd  Nd8  1  0.011854  0.637044  0.096292  1
  Nd  Nd9  1  0.000000  0.500000  0.500000  1
  Mo  Mo10  1  0.861536  0.535462  0.201889  1
  Mo  Mo11  1  0.134914  0.231113  0.323502  1
  Mo  Mo12  1  0.623322  0.982585  0.141186  1
  Mo  Mo13  1  0.360721  0.651995  0.479078  1
  Mo  Mo14  1  0.138027  0.395465  0.230620  1
  Mo  Mo15  1  0.147509  0.628457  0.699653  1
  Mo  Mo16  1  0.123322  0.517415  0.358814  1
  Mo  Mo17  1  0.645831  0.696444  0.113881  1
  Mo  Mo18  1  0.876678  0.482585  0.641186  1
  Mo  Mo19  1  0.377284  0.780016  0.606933  1
  Mo  Mo20  1  0.652988  0.161563  0.828128  1
  Mo  Mo21  1  0.347181  0.365080  0.447200  1
  Mo  Mo22  1  0.857593  0.012299  0.924572  1
  Mo  Mo23  1  0.149051  0.085958  0.422399  1
  Mo  Mo24  1  0.852491  0.371543  0.300347  1
  Mo  Mo25  1  0.637439  0.814343  0.242805  1
  Mo  Mo26  1  0.877284  0.719984  0.893067  1
  Mo  Mo27  1  0.877746  0.960404  0.355344  1
  Mo  Mo28  1  0.354169  0.303556  0.886119  1
  Mo  Mo29  1  0.138464  0.464538  0.798111  1
  Mo  Mo30  1  0.622254  0.460404  0.855344  1
  Mo  Mo31  1  0.350949  0.585958  0.922399  1
  Mo  Mo32  1  0.865086  0.768887  0.676498  1
  Mo  Mo33  1  0.634914  0.268887  0.176498  1
  Mo  Mo34  1  0.647909  0.578598  0.985496  1
  Mo  Mo35  1  0.622716  0.219984  0.393067  1
  Mo  Mo36  1  0.861973  0.604535  0.769380  1
  Mo  Mo37  1  0.377746  0.539596  0.144656  1
  Mo  Mo38  1  0.639279  0.348005  0.520922  1
  Mo  Mo39  1  0.860721  0.848005  0.020922  1
  Mo  Mo40  1  0.862561  0.314343  0.742805  1
  Mo  Mo41  1  0.852091  0.078598  0.485496  1
  Mo  Mo42  1  0.862970  0.784990  0.455458  1
  Mo  Mo43  1  0.652819  0.634920  0.552800  1
  Mo  Mo44  1  0.142407  0.987701  0.075428  1
  Mo  Mo45  1  0.642407  0.512299  0.424572  1
  Mo  Mo46  1  0.361536  0.964538  0.298111  1
  Mo  Mo47  1  0.347012  0.838437  0.171872  1
  Mo  Mo48  1  0.352091  0.421402  0.014504  1
  Mo  Mo49  1  0.854169  0.196444  0.613881  1
  Mo  Mo50  1  0.850949  0.914042  0.577601  1
  Mo  Mo51  1  0.847012  0.661563  0.328128  1
  Mo  Mo52  1  0.147909  0.921402  0.514504  1
  Mo  Mo53  1  0.365086  0.731113  0.823502  1
  Mo  Mo54  1  0.362970  0.715010  0.044542  1
  Mo  Mo55  1  0.122716  0.280016  0.106933  1
  Mo  Mo56  1  0.361973  0.895465  0.730620  1
  Mo  Mo57  1  0.152819  0.865080  0.947200  1
  Mo  Mo58  1  0.139279  0.151995  0.979078  1
  Mo  Mo59  1  0.122254  0.039596  0.644656  1
  Mo  Mo60  1  0.637030  0.284990  0.955458  1
  Mo  Mo61  1  0.638464  0.035462  0.701889  1
  Mo  Mo62  1  0.357593  0.487701  0.575428  1
  Mo  Mo63  1  0.145831  0.803556  0.386119  1
  Mo  Mo64  1  0.649051  0.414042  0.077601  1
  Mo  Mo65  1  0.352491  0.128457  0.199653  1
  Mo  Mo66  1  0.638027  0.104535  0.269380  1
  Mo  Mo67  1  0.376678  0.017415  0.858814  1
  Mo  Mo68  1  0.137439  0.685657  0.257195  1
  Mo  Mo69  1  0.137030  0.215010  0.544542  1
  Mo  Mo70  1  0.847181  0.134920  0.052800  1
  Mo  Mo71  1  0.152988  0.338437  0.671872  1
  Mo  Mo72  1  0.362561  0.185657  0.757195  1
  Mo  Mo73  1  0.647509  0.871543  0.800347  1
  O  O74  1  0.253456  0.932181  0.590315  1
  O  O75  1  0.250135  0.159945  0.832831  1
  O  O76  1  0.004065  0.262733  0.037665  1
  O  O77  1  0.495050  0.382820  0.382113  1
  O  O78  1  -0.000634  0.678456  0.188782  1
  O  O79  1  0.248068  0.888598  0.805830  1
  O  O80  1  0.975600  0.917751  0.650428  1
  O  O81  1  0.284927  0.947520  0.375972  1
  O  O82  1  0.498889  0.132871  0.134258  1
  O  O83  1  0.513305  0.243935  0.242225  1
  O  O84  1  0.995935  0.737267  0.962335  1
  O  O85  1  0.733464  0.655518  0.255539  1
  O  O86  1  0.001111  0.632871  0.634258  1
  O  O87  1  0.759270  0.769809  0.606529  1
  O  O88  1  0.748068  0.611402  0.694170  1
  O  O89  1  0.749865  0.840055  0.167169  1
  O  O90  1  0.779074  0.689541  0.043322  1
  O  O91  1  0.000634  0.321544  0.811218  1
  O  O92  1  0.484197  0.912481  0.658990  1
  O  O93  1  0.999071  0.806046  0.318396  1
  O  O94  1  0.504950  0.617180  0.617887  1
  O  O95  1  0.499366  0.821544  0.311218  1
  O  O96  1  0.256875  0.644022  0.555155  1
  O  O97  1  0.240730  0.230191  0.393471  1
  O  O98  1  0.285029  0.484590  0.656791  1
  O  O99  1  0.246544  0.432181  0.090315  1
  O  O100  1  0.214971  0.984590  0.156791  1
  O  O101  1  0.792506  0.483123  0.561425  1
  O  O102  1  0.501111  0.867129  0.865742  1
  O  O103  1  0.748795  0.391845  0.226784  1
  O  O104  1  0.524400  0.417751  0.150428  1
  O  O105  1  0.753777  0.813309  0.379566  1
  O  O106  1  0.778362  0.956820  0.279561  1
  O  O107  1  0.246223  0.186691  0.620434  1
  O  O108  1  0.253777  0.686691  0.120434  1
  O  O109  1  0.278362  0.543180  0.220439  1
  O  O110  1  0.004950  0.882820  0.882113  1
  O  O111  1  0.721638  0.456819  0.779561  1
  O  O112  1  0.746223  0.313309  0.879566  1
  O  O113  1  0.212815  0.376884  0.520441  1
  O  O114  1  0.504065  0.237267  0.462335  1
  O  O115  1  0.756875  0.855978  0.944845  1
  O  O116  1  0.287185  0.876884  0.020441  1
  O  O117  1  0.251205  0.608155  0.773216  1
  O  O118  1  0.000929  0.193954  0.681604  1
  O  O119  1  0.500634  0.178456  0.688782  1
  O  O120  1  0.220926  0.310459  0.956678  1
  O  O121  1  0.215073  0.447520  0.875972  1
  O  O122  1  0.491650  0.708837  0.975011  1
  O  O123  1  0.486695  0.756065  0.757775  1
  O  O124  1  0.720926  0.189541  0.543322  1
  O  O125  1  0.499071  0.693954  0.181604  1
  O  O126  1  0.247854  0.270104  0.173292  1
  O  O127  1  -0.004950  0.117180  0.117887  1
  O  O128  1  0.005004  0.150793  0.905645  1
  O  O129  1  0.007980  0.336087  0.602472  1
  O  O130  1  0.013305  0.256065  0.257775  1
  O  O131  1  0.986695  0.743935  0.742225  1
  O  O132  1  0.279074  0.810459  0.456678  1
  O  O133  1  0.015803  0.412481  0.158990  1
  O  O134  1  0.221638  0.043180  0.720439  1
  O  O135  1  0.249865  0.659945  0.332831  1
  O  O136  1  0.766536  0.155518  0.755539  1
  O  O137  1  0.715073  0.052480  0.624028  1
  O  O138  1  -0.008350  0.791163  0.524989  1
  O  O139  1  0.784927  0.552480  0.124028  1
  O  O140  1  0.505004  0.349207  0.594355  1
  O  O141  1  0.233464  0.844482  0.244461  1
  O  O142  1  0.739070  0.923828  0.502302  1
  O  O143  1  0.714971  0.515410  0.343209  1
  O  O144  1  0.752146  0.729896  0.826708  1
  O  O145  1  0.740730  0.269809  0.106529  1
  O  O146  1  0.259270  0.730191  0.893471  1
  O  O147  1  0.753456  0.567819  0.909685  1
  O  O148  1  0.024400  0.082249  0.349572  1
  O  O149  1  0.751932  0.111402  0.194170  1
  O  O150  1  0.994996  0.849207  0.094355  1
  O  O151  1  0.747854  0.229896  0.326708  1
  O  O152  1  0.746544  0.067819  0.409685  1
  O  O153  1  0.008350  0.208837  0.475011  1
  O  O154  1  0.508350  0.291163  0.024989  1
  O  O155  1  0.785029  0.015410  0.843209  1
  O  O156  1  0.260930  0.076172  0.497698  1
  O  O157  1  -0.001111  0.367129  0.365742  1
  O  O158  1  0.475600  0.582249  0.849572  1
  O  O159  1  0.248795  0.108155  0.273216  1
  O  O160  1  0.992020  0.663913  0.397528  1
  O  O161  1  0.515803  0.087519  0.341010  1
  O  O162  1  0.292506  0.016877  0.938575  1
  O  O163  1  0.207494  0.516877  0.438575  1
  O  O164  1  0.243125  0.144022  0.055155  1
  O  O165  1  0.760930  0.423828  0.002302  1
  O  O166  1  0.750135  0.340055  0.667169  1
  O  O167  1  0.495935  0.762733  0.537665  1
  O  O168  1  0.984197  0.587519  0.841010  1
  O  O169  1  0.492020  0.836087  0.102472  1
  O  O170  1  0.239070  0.576172  0.997698  1
  O  O171  1  0.500929  0.306046  0.818396  1
  O  O172  1  0.743125  0.355978  0.444845  1
  O  O173  1  0.751205  0.891845  0.726784  1
  O  O174  1  0.494996  0.650793  0.405645  1
  O  O175  1  0.266536  0.344482  0.744461  1
  O  O176  1  0.712815  0.123116  0.979559  1
  O  O177  1  0.507980  0.163913  0.897528  1
  O  O178  1  0.707494  0.983123  0.061425  1
  O  O179  1  0.251932  0.388598  0.305830  1
  O  O180  1  0.252146  0.770104  0.673292  1
  O  O181  1  0.787185  0.623116  0.479559  1
