# generated using pymatgen
data_Nd10Ti12O39
_symmetry_space_group_name_H-M   'P 1'
_cell_length_a   7.27300913
_cell_length_b   21.78486354
_cell_length_c   12.71268637
_cell_angle_alpha   30.10446395
_cell_angle_beta   54.03591422
_cell_angle_gamma   59.39915638
_symmetry_Int_Tables_number   1
_chemical_formula_structural   Nd10Ti12O39
_chemical_formula_sum   'Nd10 Ti12 O39'
_cell_volume   817.70924784
_cell_formula_units_Z   1
loop_
 _symmetry_equiv_pos_site_id
 _symmetry_equiv_pos_as_xyz
  1  'x, y, z'
loop_
 _atom_site_type_symbol
 _atom_site_label
 _atom_site_symmetry_multiplicity
 _atom_site_fract_x
 _atom_site_fract_y
 _atom_site_fract_z
 _atom_site_occupancy
  Nd  Nd0  1  0.464103  0.170608  0.003718  1
  Nd  Nd1  1  0.000978  0.319303  0.515275  1
  Nd  Nd2  1  0.513090  0.490915  0.001328  1
  Nd  Nd3  1  0.517515  0.312804  0.516745  1
  Nd  Nd4  1  0.002225  0.676168  0.481095  1
  Nd  Nd5  1  0.508395  0.506640  0.479144  1
  Nd  Nd6  1  0.524061  0.850968  0.979717  1
  Nd  Nd7  1  0.500326  0.664337  0.503239  1
  Nd  Nd8  1  0.466142  0.829029  0.523156  1
  Nd  Nd9  1  0.517886  0.020492  0.486182  1
  O  O10  1  0.070868  0.216935  0.039218  1
  O  O11  1  0.109701  0.999277  0.667860  1
  O  O12  1  0.647179  0.997978  0.107389  1
  O  O13  1  0.054757  0.128324  0.692671  1
  O  O14  1  0.329169  0.205342  0.316115  1
  O  O15  1  0.099563  0.516873  0.094064  1
  O  O16  1  0.646156  0.181752  0.104045  1
  O  O17  1  0.685351  0.347335  0.039065  1
  O  O18  1  0.313587  0.987396  0.959611  1
  O  O19  1  0.102937  0.337431  0.645644  1
  O  O20  1  0.324255  0.133705  0.924713  1
  O  O21  1  0.071379  0.868711  0.076790  1
  O  O22  1  0.085685  0.475160  0.654933  1
  O  O23  1  0.324177  0.545530  0.306676  1
  O  O24  1  0.659837  0.519408  0.095044  1
  O  O25  1  0.947279  0.215228  0.298873  1
  O  O26  1  0.681766  0.126899  0.689023  1
  O  O27  1  0.923248  0.330568  0.331295  1
  O  O28  1  0.392800  0.682360  0.340983  1
  O  O29  1  0.623428  0.323232  0.632655  1
  O  O30  1  0.688886  0.661880  0.069813  1
  O  O31  1  0.334862  0.338126  0.906926  1
  O  O32  1  0.064800  0.663401  0.686018  1
  O  O33  1  0.323707  0.861008  0.336268  1
  O  O34  1  0.324843  0.468327  0.916801  1
  O  O35  1  0.072529  0.784491  0.694877  1
  O  O36  1  0.924336  0.139761  0.915511  1
  O  O37  1  0.686086  0.871237  0.068880  1
  O  O38  1  0.919574  0.528143  0.329793  1
  O  O39  1  0.677588  0.467781  0.667765  1
  O  O40  1  0.921680  0.669582  0.324665  1
  O  O41  1  0.609433  0.664989  0.639608  1
  O  O42  1  0.330245  0.667936  0.923869  1
  O  O43  1  0.348022  0.807445  0.922536  1
  O  O44  1  0.925635  0.470517  0.917450  1
  O  O45  1  0.917906  0.858605  0.341881  1
  O  O46  1  0.646181  0.823844  0.648352  1
  O  O47  1  0.932498  0.003615  0.314552  1
  O  O48  1  0.924141  0.788518  0.951469  1
  Ti  Ti49  1  0.985626  0.004078  0.995656  1
  Ti  Ti50  1  0.489213  0.994863  0.011906  1
  Ti  Ti51  1  -0.002861  0.332498  0.002792  1
  Ti  Ti52  1  0.988894  0.499975  0.004512  1
  Ti  Ti53  1  0.998071  0.161597  0.498591  1
  Ti  Ti54  1  0.488377  0.334115  0.002199  1
  Ti  Ti55  1  0.008373  0.663648  0.003266  1
  Ti  Ti56  1  0.996265  0.159549  0.010074  1
  Ti  Ti57  1  0.014320  0.832287  0.996880  1
  Ti  Ti58  1  -0.001330  0.494369  0.509444  1
  Ti  Ti59  1  0.493398  0.669594  0.003890  1
  Ti  Ti60  1  0.985859  0.833516  0.502491  1
