# generated using pymatgen
data_Nd2Cu2O5
_symmetry_space_group_name_H-M   'P 1'
_cell_length_a   3.71304908
_cell_length_b   7.13425482
_cell_length_c   26.68183401
_cell_angle_alpha   87.28945260
_cell_angle_beta   86.01013253
_cell_angle_gamma   74.91647754
_symmetry_Int_Tables_number   1
_chemical_formula_structural   Nd2Cu2O5
_chemical_formula_sum   'Nd12 Cu12 O30'
_cell_volume   680.47998169
_cell_formula_units_Z   6
loop_
 _symmetry_equiv_pos_site_id
 _symmetry_equiv_pos_as_xyz
  1  'x, y, z'
loop_
 _atom_site_type_symbol
 _atom_site_label
 _atom_site_symmetry_multiplicity
 _atom_site_fract_x
 _atom_site_fract_y
 _atom_site_fract_z
 _atom_site_occupancy
  Nd  Nd0  1  0.574797  0.171303  0.635544  1
  Nd  Nd1  1  0.095478  0.344751  0.401845  1
  Nd  Nd2  1  0.425203  0.828697  0.364456  1
  Nd  Nd3  1  0.881645  0.328697  0.864456  1
  Nd  Nd4  1  0.118355  0.671303  0.135544  1
  Nd  Nd5  1  0.884622  0.492100  0.731580  1
  Nd  Nd6  1  0.115378  0.507900  0.268420  1
  Nd  Nd7  1  0.904522  0.655249  0.598155  1
  Nd  Nd8  1  0.608302  0.007900  0.768420  1
  Nd  Nd9  1  0.342075  0.155249  0.098155  1
  Nd  Nd10  1  0.391698  0.992100  0.231580  1
  Nd  Nd11  1  0.657925  0.844751  0.901845  1
  Cu  Cu12  1  0.248443  0.831183  0.680910  1
  Cu  Cu13  1  0.261045  0.976639  0.538802  1
  Cu  Cu14  1  0.276485  0.523361  0.961198  1
  Cu  Cu15  1  0.291647  0.657346  0.469862  1
  Cu  Cu16  1  0.918855  0.842654  0.030138  1
  Cu  Cu17  1  0.260535  0.668817  0.819090  1
  Cu  Cu18  1  0.723515  0.476639  0.038802  1
  Cu  Cu19  1  0.738955  0.023361  0.461198  1
  Cu  Cu20  1  0.751557  0.168817  0.319090  1
  Cu  Cu21  1  0.708353  0.342654  0.530138  1
  Cu  Cu22  1  0.081145  0.157346  0.969862  1
  Cu  Cu23  1  0.739465  0.331183  0.180910  1
  O  O24  1  0.251047  0.170953  0.319655  1
  O  O25  1  0.386961  0.490958  0.665054  1
  O  O26  1  0.758345  0.670953  0.819655  1
  O  O27  1  0.279569  0.943886  0.461791  1
  O  O28  1  0.746197  0.250000  0.250000  1
  O  O29  1  0.719426  0.410930  0.110686  1
  O  O30  1  0.879007  0.124332  0.038762  1
  O  O31  1  0.748953  0.829047  0.680345  1
  O  O32  1  0.002372  0.323619  0.589904  1
  O  O33  1  0.043838  0.161804  0.709116  1
  O  O34  1  0.241655  0.329047  0.180345  1
  O  O35  1  0.042974  0.009042  0.834946  1
  O  O36  1  0.258958  0.910930  0.610686  1
  O  O37  1  0.280574  0.589070  0.889314  1
  O  O38  1  0.414758  0.338196  0.790884  1
  O  O39  1  0.185246  0.556114  0.038209  1
  O  O40  1  0.997628  0.676381  0.410096  1
  O  O41  1  0.253803  0.750000  0.750000  1
  O  O42  1  0.584104  0.823619  0.089904  1
  O  O43  1  0.720431  0.056114  0.538209  1
  O  O44  1  0.814754  0.443886  0.961791  1
  O  O45  1  0.585242  0.661804  0.209116  1
  O  O46  1  0.957026  0.990958  0.165054  1
  O  O47  1  0.457899  0.624332  0.538762  1
  O  O48  1  0.542101  0.375668  0.461238  1
  O  O49  1  0.120993  0.875668  0.961238  1
  O  O50  1  0.956162  0.838196  0.290884  1
  O  O51  1  0.741042  0.089070  0.389314  1
  O  O52  1  0.415896  0.176381  0.910096  1
  O  O53  1  0.613039  0.509042  0.334946  1
