# generated using pymatgen
data_Nd12Cu6O25
_symmetry_space_group_name_H-M   'P 1'
_cell_length_a   3.77375665
_cell_length_b   8.82276155
_cell_length_c   17.47937846
_cell_angle_alpha   81.96499468
_cell_angle_beta   83.80290989
_cell_angle_gamma   77.65105963
_symmetry_Int_Tables_number   1
_chemical_formula_structural   Nd12Cu6O25
_chemical_formula_sum   'Nd12 Cu6 O25'
_cell_volume   561.09310937
_cell_formula_units_Z   1
loop_
 _symmetry_equiv_pos_site_id
 _symmetry_equiv_pos_as_xyz
  1  'x, y, z'
loop_
 _atom_site_type_symbol
 _atom_site_label
 _atom_site_symmetry_multiplicity
 _atom_site_fract_x
 _atom_site_fract_y
 _atom_site_fract_z
 _atom_site_occupancy
  Nd  Nd0  1  0.830723  0.916856  0.421699  1
  Nd  Nd1  1  0.552413  0.824252  0.070922  1
  Nd  Nd2  1  0.031572  0.672435  0.264420  1
  Nd  Nd3  1  0.348418  0.069766  0.233398  1
  Nd  Nd4  1  0.143108  0.316644  0.397140  1
  Nd  Nd5  1  0.761029  0.575667  0.902274  1
  Nd  Nd6  1  0.651582  0.930234  0.766602  1
  Nd  Nd7  1  0.856892  0.683356  0.602860  1
  Nd  Nd8  1  0.968428  0.327565  0.735580  1
  Nd  Nd9  1  0.447587  0.175748  0.929078  1
  Nd  Nd10  1  0.238971  0.424333  0.097726  1
  Nd  Nd11  1  0.169277  0.083144  0.578301  1
  Cu  Cu12  1  0.103949  0.872952  0.919151  1
  Cu  Cu13  1  0.896051  0.127048  0.080849  1
  Cu  Cu14  1  0.483768  0.606461  0.426004  1
  Cu  Cu15  1  0.310535  0.626973  0.751958  1
  Cu  Cu16  1  0.689465  0.373027  0.248042  1
  Cu  Cu17  1  0.516232  0.393539  0.573996  1
  O  O18  1  0.812040  0.623283  0.752637  1
  O  O19  1  0.187960  0.376717  0.247363  1
  O  O20  1  0.570626  0.168554  0.690195  1
  O  O21  1  0.777585  0.131127  0.313703  1
  O  O22  1  0.396459  0.125057  0.082026  1
  O  O23  1  0.249863  0.057380  0.442893  1
  O  O24  1  0.830791  0.349367  0.989050  1
  O  O25  1  0.210615  0.736220  0.842549  1
  O  O26  1  0.222415  0.868873  0.686297  1
  O  O27  1  0.018246  0.374316  0.589192  1
  O  O28  1  0.623081  0.595075  0.158763  1
  O  O29  1  0.429374  0.831446  0.309805  1
  O  O30  1  0.414149  0.508162  0.663540  1
  O  O31  1  0.585851  0.491838  0.336460  1
  O  O32  1  0.028145  0.109595  0.834115  1
  O  O33  1  0.789385  0.263780  0.157451  1
  O  O34  1  0.750137  0.942620  0.557107  1
  O  O35  1  0.385506  0.715336  0.513652  1
  O  O36  1  0.000000  0.000000  0.000000  1
  O  O37  1  0.603541  0.874943  0.917974  1
  O  O38  1  0.971855  0.890405  0.165885  1
  O  O39  1  0.376919  0.404925  0.841237  1
  O  O40  1  0.614494  0.284664  0.486348  1
  O  O41  1  0.981754  0.625684  0.410808  1
  O  O42  1  0.169209  0.650633  0.010950  1
