# generated using pymatgen
data_Nd3MoO7
_symmetry_space_group_name_H-M   'P 1'
_cell_length_a   7.72367437
_cell_length_b   7.66161558
_cell_length_c   10.95126120
_cell_angle_alpha   90.00000000
_cell_angle_beta   90.00000000
_cell_angle_gamma   90.00000000
_symmetry_Int_Tables_number   1
_chemical_formula_structural   Nd3MoO7
_chemical_formula_sum   'Nd12 Mo4 O28'
_cell_volume   648.04990412
_cell_formula_units_Z   4
loop_
 _symmetry_equiv_pos_site_id
 _symmetry_equiv_pos_as_xyz
  1  'x, y, z'
loop_
 _atom_site_type_symbol
 _atom_site_label
 _atom_site_symmetry_multiplicity
 _atom_site_fract_x
 _atom_site_fract_y
 _atom_site_fract_z
 _atom_site_occupancy
  Nd  Nd0  1  0.540651  0.988953  0.255525  1
  Nd  Nd1  1  0.712992  0.751514  0.526686  1
  Nd  Nd2  1  0.287008  0.251514  0.973314  1
  Nd  Nd3  1  0.298909  0.248359  0.519009  1
  Nd  Nd4  1  0.201091  0.751641  0.019009  1
  Nd  Nd5  1  0.212992  0.748486  0.473314  1
  Nd  Nd6  1  0.701091  0.748359  0.980991  1
  Nd  Nd7  1  0.798909  0.251641  0.480991  1
  Nd  Nd8  1  0.459349  0.488953  0.244475  1
  Nd  Nd9  1  0.787008  0.248486  0.026686  1
  Nd  Nd10  1  0.959349  0.011047  0.755525  1
  Nd  Nd11  1  0.040651  0.511047  0.744475  1
  Mo  Mo12  1  0.498099  0.996351  0.748841  1
  Mo  Mo13  1  0.998099  0.503649  0.251159  1
  Mo  Mo14  1  0.501901  0.496351  0.751159  1
  Mo  Mo15  1  0.001901  0.003649  0.248841  1
  O  O16  1  0.292253  0.532130  0.869188  1
  O  O17  1  0.936720  0.253195  0.257124  1
  O  O18  1  0.189309  0.467869  0.123020  1
  O  O19  1  0.185832  0.032806  0.370412  1
  O  O20  1  0.532046  0.252935  0.383223  1
  O  O21  1  0.810690  0.967869  0.376980  1
  O  O22  1  0.467954  0.752935  0.116777  1
  O  O23  1  0.685832  0.467194  0.629588  1
  O  O24  1  0.360479  0.958100  0.603101  1
  O  O25  1  0.860479  0.541900  0.396899  1
  O  O26  1  0.310690  0.532131  0.623020  1
  O  O27  1  0.990721  0.763063  0.618054  1
  O  O28  1  0.139521  0.041900  0.103101  1
  O  O29  1  0.689310  0.032131  0.876980  1
  O  O30  1  0.063280  0.753195  0.242876  1
  O  O31  1  0.792253  0.967870  0.130812  1
  O  O32  1  0.509279  0.236937  0.118054  1
  O  O33  1  0.032046  0.247065  0.616777  1
  O  O34  1  0.314168  0.967194  0.870412  1
  O  O35  1  0.490721  0.736937  0.381946  1
  O  O36  1  0.009279  0.263063  0.881946  1
  O  O37  1  0.967954  0.747065  0.883223  1
  O  O38  1  0.207747  0.467870  0.369188  1
  O  O39  1  0.563280  0.746805  0.757124  1
  O  O40  1  0.436720  0.246805  0.742876  1
  O  O41  1  0.639521  0.458100  0.896899  1
  O  O42  1  0.814168  0.532806  0.129588  1
  O  O43  1  0.707747  0.032130  0.630812  1
