# generated using pymatgen
data_Nd3Ti4O12
_symmetry_space_group_name_H-M   'P 1'
_cell_length_a   5.46711506
_cell_length_b   7.64820049
_cell_length_c   22.40176170
_cell_angle_alpha   90.00000000
_cell_angle_beta   90.00000000
_cell_angle_gamma   90.00000000
_symmetry_Int_Tables_number   1
_chemical_formula_structural   Nd3Ti4O12
_chemical_formula_sum   'Nd12 Ti16 O48'
_cell_volume   936.69812561
_cell_formula_units_Z   4
loop_
 _symmetry_equiv_pos_site_id
 _symmetry_equiv_pos_as_xyz
  1  'x, y, z'
loop_
 _atom_site_type_symbol
 _atom_site_label
 _atom_site_symmetry_multiplicity
 _atom_site_fract_x
 _atom_site_fract_y
 _atom_site_fract_z
 _atom_site_occupancy
  Nd  Nd0  1  0.557795  0.250000  0.296954  1
  Nd  Nd1  1  0.057795  0.750000  0.203046  1
  Nd  Nd2  1  0.425883  0.250000  0.675875  1
  Nd  Nd3  1  0.454192  0.750000  0.972437  1
  Nd  Nd4  1  0.045808  0.750000  0.472437  1
  Nd  Nd5  1  0.545808  0.250000  0.027563  1
  Nd  Nd6  1  0.442205  0.750000  0.703046  1
  Nd  Nd7  1  0.074117  0.250000  0.175875  1
  Nd  Nd8  1  0.925883  0.750000  0.824125  1
  Nd  Nd9  1  0.954192  0.250000  0.527563  1
  Nd  Nd10  1  0.942205  0.250000  0.796954  1
  Nd  Nd11  1  0.574117  0.750000  0.324125  1
  Ti  Ti12  1  0.441322  0.498829  0.823201  1
  Ti  Ti13  1  0.558678  0.501170  0.176799  1
  Ti  Ti14  1  0.452428  0.511584  0.560992  1
  Ti  Ti15  1  0.547572  0.011584  0.439008  1
  Ti  Ti16  1  0.047572  0.988416  0.060992  1
  Ti  Ti17  1  0.941322  0.998830  0.676799  1
  Ti  Ti18  1  0.047572  0.511584  0.060992  1
  Ti  Ti19  1  0.952428  0.488416  0.939008  1
  Ti  Ti20  1  0.058678  0.498829  0.323201  1
  Ti  Ti21  1  0.058678  0.001171  0.323201  1
  Ti  Ti22  1  0.547572  0.488416  0.439008  1
  Ti  Ti23  1  0.941322  0.501170  0.676799  1
  Ti  Ti24  1  0.452428  0.988416  0.560992  1
  Ti  Ti25  1  0.558678  0.998830  0.176799  1
  Ti  Ti26  1  0.441322  0.001171  0.823201  1
  Ti  Ti27  1  0.952428  0.011584  0.939008  1
  O  O28  1  0.364154  0.438517  0.113339  1
  O  O29  1  0.295786  0.040416  0.236745  1
  O  O30  1  0.364154  0.061483  0.113339  1
  O  O31  1  0.795786  0.540416  0.263255  1
  O  O32  1  0.160642  0.750000  0.061798  1
  O  O33  1  0.204214  0.459584  0.736745  1
  O  O34  1  0.247713  0.038387  0.987565  1
  O  O35  1  0.121235  0.467589  0.858226  1
  O  O36  1  0.839358  0.250000  0.938202  1
  O  O37  1  -0.003295  0.250000  0.314752  1
  O  O38  1  0.135846  0.061483  0.613339  1
  O  O39  1  0.704214  0.540416  0.763255  1
  O  O40  1  0.650879  0.250000  0.193132  1
  O  O41  1  0.252287  0.461613  0.487565  1
  O  O42  1  0.747713  0.961613  0.512435  1
  O  O43  1  0.752287  0.961613  0.012435  1
  O  O44  1  0.121235  0.032411  0.858226  1
  O  O45  1  0.752287  0.538387  0.012435  1
  O  O46  1  0.864154  0.561483  0.386661  1
  O  O47  1  0.878765  0.967589  0.141774  1
  O  O48  1  0.864154  0.938517  0.386661  1
  O  O49  1  0.621235  0.532411  0.641774  1
  O  O50  1  0.496705  0.750000  0.185248  1
  O  O51  1  0.635846  0.938517  0.886661  1
  O  O52  1  0.660642  0.250000  0.438202  1
  O  O53  1  0.252287  0.038387  0.487565  1
  O  O54  1  0.795786  0.959584  0.263255  1
  O  O55  1  0.378765  0.032411  0.358226  1
  O  O56  1  0.467285  0.750000  0.430204  1
  O  O57  1  0.349121  0.750000  0.806868  1
  O  O58  1  0.635846  0.561483  0.886661  1
  O  O59  1  1.003295  0.750000  0.685248  1
  O  O60  1  0.295786  0.459584  0.236745  1
  O  O61  1  0.032715  0.750000  0.930204  1
  O  O62  1  0.150879  0.750000  0.306868  1
  O  O63  1  0.532715  0.250000  0.569796  1
  O  O64  1  0.747713  0.538387  0.512435  1
  O  O65  1  0.967285  0.250000  0.069796  1
  O  O66  1  0.247713  0.461613  0.987565  1
  O  O67  1  0.204214  0.040416  0.736745  1
  O  O68  1  0.378765  0.467589  0.358226  1
  O  O69  1  0.135846  0.438517  0.613339  1
  O  O70  1  0.849121  0.250000  0.693132  1
  O  O71  1  0.878765  0.532411  0.141774  1
  O  O72  1  0.503295  0.250000  0.814752  1
  O  O73  1  0.704214  0.959584  0.763255  1
  O  O74  1  0.339358  0.750000  0.561798  1
  O  O75  1  0.621235  0.967589  0.641774  1
