# generated using pymatgen
data_Nd12Zr12O37
_symmetry_space_group_name_H-M   'P 1'
_cell_length_a   7.59590056
_cell_length_b   7.61191060
_cell_length_c   22.92119411
_cell_angle_alpha   59.76027411
_cell_angle_beta   59.70421301
_cell_angle_gamma   59.63400537
_symmetry_Int_Tables_number   1
_chemical_formula_structural   Nd12Zr12O37
_chemical_formula_sum   'Nd12 Zr12 O37'
_cell_volume   930.72098516
_cell_formula_units_Z   1
loop_
 _symmetry_equiv_pos_site_id
 _symmetry_equiv_pos_as_xyz
  1  'x, y, z'
loop_
 _atom_site_type_symbol
 _atom_site_label
 _atom_site_symmetry_multiplicity
 _atom_site_fract_x
 _atom_site_fract_y
 _atom_site_fract_z
 _atom_site_occupancy
  Nd  Nd0  1  0.010700  0.001039  0.995752  1
  Nd  Nd1  1  0.988489  0.504531  0.005722  1
  Nd  Nd2  1  0.993626  0.997490  0.165611  1
  Nd  Nd3  1  0.499386  0.999078  0.995202  1
  Nd  Nd4  1  0.998244  0.996939  0.335193  1
  Nd  Nd5  1  0.005851  0.499776  0.332173  1
  Nd  Nd6  1  0.989366  0.991272  0.500374  1
  Nd  Nd7  1  0.504812  -0.001048  0.333338  1
  Nd  Nd8  1  0.982214  -0.001493  0.675197  1
  Nd  Nd9  1  0.998841  0.016035  0.832411  1
  Nd  Nd10  1  0.997331  0.499353  0.662541  1
  Nd  Nd11  1  0.502376  1.001061  0.668298  1
  O  O12  1  0.123646  0.127532  0.040514  1
  O  O13  1  0.139513  0.621977  0.043982  1
  O  O14  1  0.367407  0.344802  0.124186  1
  O  O15  1  0.126395  0.123598  0.375481  1
  O  O16  1  0.603461  0.144710  0.204815  1
  O  O17  1  0.597786  0.606128  0.052126  1
  O  O18  1  0.407753  0.430704  0.275327  1
  O  O19  1  0.152098  0.599148  0.385304  1
  O  O20  1  0.408688  0.852414  0.139265  1
  O  O21  1  0.151076  0.596667  0.530984  1
  O  O22  1  0.856583  0.394782  0.140865  1
  O  O23  1  0.407763  0.839553  0.277886  1
  O  O24  1  0.598924  0.152355  0.384385  1
  O  O25  1  0.128559  0.125171  0.707849  1
  O  O26  1  0.586808  0.147903  0.537094  1
  O  O27  1  0.840446  0.424037  0.273291  1
  O  O28  1  0.588320  0.589782  0.388873  1
  O  O29  1  0.837006  0.837102  0.139129  1
  O  O30  1  0.151444  0.148809  0.867280  1
  O  O31  1  0.400411  0.426102  0.614977  1
  O  O32  1  0.397577  0.841649  0.478266  1
  O  O33  1  0.838901  0.394924  0.480038  1
  O  O34  1  0.884658  0.872677  0.290612  1
  O  O35  1  0.589960  0.154035  0.719625  1
  O  O36  1  0.380277  0.835243  0.612687  1
  O  O37  1  0.603918  0.160979  0.858352  1
  O  O38  1  0.602340  0.599681  0.713734  1
  O  O39  1  0.850661  0.389521  0.610752  1
  O  O40  1  0.838552  0.844193  0.470580  1
  O  O41  1  0.437281  0.409538  0.943332  1
  O  O42  1  0.406621  0.829317  0.807963  1
  O  O43  1  0.886675  0.876577  0.624888  1
  O  O44  1  0.425620  0.835320  0.943917  1
  O  O45  1  0.856088  0.425822  0.796324  1
  O  O46  1  0.833978  0.417825  0.947489  1
  O  O47  1  0.850009  0.825721  0.803085  1
  O  O48  1  0.871626  0.882869  0.955866  1
  Zr  Zr49  1  0.487361  0.482428  0.165338  1
  Zr  Zr50  1  0.496259  0.492181  0.336511  1
  Zr  Zr51  1  0.498139  0.003131  0.169548  1
  Zr  Zr52  1  0.017687  0.501492  0.161770  1
  Zr  Zr53  1  0.488488  0.489178  0.502116  1
  Zr  Zr54  1  0.499502  0.501658  0.667439  1
  Zr  Zr55  1  0.498481  0.000977  0.499695  1
  Zr  Zr56  1  0.004624  0.501466  0.497215  1
  Zr  Zr57  1  0.496985  0.500993  0.830507  1
  Zr  Zr58  1  0.483942  0.505360  0.006818  1
  Zr  Zr59  1  0.488646  0.020788  0.831524  1
  Zr  Zr60  1  0.996023  0.492147  0.838383  1
