# generated using pymatgen
data_Nd4Au2O9
_symmetry_space_group_name_H-M   'P 1'
_cell_length_a   6.21206526
_cell_length_b   12.07583955
_cell_length_c   12.06232243
_cell_angle_alpha   90.00000000
_cell_angle_beta   90.00000000
_cell_angle_gamma   90.00000000
_symmetry_Int_Tables_number   1
_chemical_formula_structural   Nd4Au2O9
_chemical_formula_sum   'Nd16 Au8 O36'
_cell_volume   904.86601363
_cell_formula_units_Z   4
loop_
 _symmetry_equiv_pos_site_id
 _symmetry_equiv_pos_as_xyz
  1  'x, y, z'
loop_
 _atom_site_type_symbol
 _atom_site_label
 _atom_site_symmetry_multiplicity
 _atom_site_fract_x
 _atom_site_fract_y
 _atom_site_fract_z
 _atom_site_occupancy
  O  O0  1  0.938924  0.446133  0.385143  1
  O  O1  1  0.938924  0.053867  0.614857  1
  O  O2  1  0.561076  0.946133  0.114857  1
  O  O3  1  0.561076  0.553867  0.885143  1
  O  O4  1  0.061076  0.553867  0.614857  1
  O  O5  1  0.061076  0.946133  0.385143  1
  O  O6  1  0.438924  0.053867  0.885143  1
  O  O7  1  0.438924  0.446133  0.114857  1
  O  O8  1  0.940923  0.352345  0.163801  1
  O  O9  1  0.940923  0.147655  0.836199  1
  O  O10  1  0.559077  0.852345  0.336199  1
  O  O11  1  0.559077  0.647655  0.663801  1
  O  O12  1  0.059077  0.647655  0.836199  1
  O  O13  1  0.059077  0.852345  0.163801  1
  O  O14  1  0.625581  0.158454  0.197023  1
  O  O15  1  0.440923  0.147655  0.663801  1
  O  O16  1  0.611169  0.088155  0.422545  1
  O  O17  1  0.611169  0.411845  0.577455  1
  O  O18  1  0.888831  0.588155  0.077455  1
  O  O19  1  0.888831  0.911845  0.922545  1
  O  O20  1  0.388831  0.911845  0.577455  1
  O  O21  1  0.388831  0.588155  0.422545  1
  O  O22  1  0.111169  0.411845  0.922545  1
  O  O23  1  0.111169  0.088155  0.077455  1
  O  O24  1  0.023875  0.250000  0.500000  1
  O  O25  1  0.476125  0.750000  0.000000  1
  O  O26  1  0.976125  0.750000  0.500000  1
  O  O27  1  0.523875  0.250000  0.000000  1
  O  O28  1  0.125581  0.158454  0.302977  1
  O  O29  1  0.125581  0.341546  0.697023  1
  O  O30  1  0.374419  0.658454  0.197023  1
  O  O31  1  0.374419  0.841546  0.802977  1
  O  O32  1  0.874419  0.841546  0.697023  1
  O  O33  1  0.874419  0.658454  0.302977  1
  O  O34  1  0.625581  0.341546  0.802977  1
  O  O35  1  0.440923  0.352345  0.336199  1
  Nd  Nd36  1  0.742096  0.089360  0.011437  1
  Nd  Nd37  1  0.742096  0.410640  0.988563  1
  Nd  Nd38  1  0.757904  0.589360  0.488563  1
  Nd  Nd39  1  0.757904  0.910640  0.511437  1
  Nd  Nd40  1  0.257904  0.910640  0.988563  1
  Nd  Nd41  1  0.257904  0.589360  0.011437  1
  Nd  Nd42  1  0.242096  0.410640  0.511437  1
  Nd  Nd43  1  0.242096  0.089360  0.488563  1
  Nd  Nd44  1  0.803742  0.264164  0.340269  1
  Nd  Nd45  1  0.803742  0.235836  0.659731  1
  Nd  Nd46  1  0.696258  0.764164  0.159731  1
  Nd  Nd47  1  0.696258  0.735836  0.840269  1
  Nd  Nd48  1  0.196258  0.735836  0.659731  1
  Nd  Nd49  1  0.196258  0.764164  0.340269  1
  Nd  Nd50  1  0.303742  0.235836  0.840269  1
  Nd  Nd51  1  0.303742  0.264164  0.159731  1
  Au  Au52  1  0.579980  0.010908  0.271062  1
  Au  Au53  1  0.579980  0.489092  0.728938  1
  Au  Au54  1  0.920020  0.510908  0.228938  1
  Au  Au55  1  0.920020  0.989092  0.771062  1
  Au  Au56  1  0.420020  0.989092  0.728938  1
  Au  Au57  1  0.420020  0.510908  0.271062  1
  Au  Au58  1  0.079980  0.489092  0.771062  1
  Au  Au59  1  0.079980  0.010908  0.228938  1
