# generated using pymatgen
data_Nd4Ni3O10
_symmetry_space_group_name_H-M   'P 1'
_cell_length_a   5.44562191
_cell_length_b   5.52671898
_cell_length_c   27.69733923
_cell_angle_alpha   90.00000000
_cell_angle_beta   90.63963258
_cell_angle_gamma   90.00000000
_symmetry_Int_Tables_number   1
_chemical_formula_structural   Nd4Ni3O10
_chemical_formula_sum   'Nd16 Ni12 O40'
_cell_volume   833.53886568
_cell_formula_units_Z   4
loop_
 _symmetry_equiv_pos_site_id
 _symmetry_equiv_pos_as_xyz
  1  'x, y, z'
loop_
 _atom_site_type_symbol
 _atom_site_label
 _atom_site_symmetry_multiplicity
 _atom_site_fract_x
 _atom_site_fract_y
 _atom_site_fract_z
 _atom_site_occupancy
  Nd  Nd0  1  0.458244  0.492754  0.568517  1
  Nd  Nd1  1  0.541756  0.507246  0.431483  1
  Nd  Nd2  1  0.011519  0.015830  0.699959  1
  Nd  Nd3  1  0.958244  0.007246  0.568517  1
  Nd  Nd4  1  0.044295  0.507119  0.931571  1
  Nd  Nd5  1  0.501494  0.016108  0.199754  1
  Nd  Nd6  1  0.511519  0.484170  0.699959  1
  Nd  Nd7  1  0.498505  0.983892  0.800246  1
  Nd  Nd8  1  0.455705  0.007119  0.068429  1
  Nd  Nd9  1  1.001494  0.483892  0.199754  1
  Nd  Nd10  1  -0.001494  0.516108  0.800246  1
  Nd  Nd11  1  0.988481  0.984170  0.300041  1
  Nd  Nd12  1  0.041756  0.992754  0.431483  1
  Nd  Nd13  1  0.955705  0.492881  0.068429  1
  Nd  Nd14  1  0.544295  0.992881  0.931571  1
  Nd  Nd15  1  0.488481  0.515830  0.300041  1
  Ni  Ni16  1  0.494814  0.995739  0.640080  1
  Ni  Ni17  1  0.988612  0.995658  0.139965  1
  Ni  Ni18  1  0.011388  0.004342  0.860035  1
  Ni  Ni19  1  0.005186  0.495739  0.359920  1
  Ni  Ni20  1  0.500000  0.500000  0.000000  1
  Ni  Ni21  1  0.488612  0.504342  0.139965  1
  Ni  Ni22  1  0.511388  0.495658  0.860035  1
  Ni  Ni23  1  0.994814  0.504261  0.640080  1
  Ni  Ni24  1  0.500000  0.000000  0.500000  1
  Ni  Ni25  1  0.505186  0.004261  0.359920  1
  Ni  Ni26  1  0.000000  0.000000  0.000000  1
  Ni  Ni27  1  0.000000  0.500000  0.500000  1
  O  O28  1  0.011250  0.917270  0.068348  1
  O  O29  1  0.014921  0.938540  0.782364  1
  O  O30  1  0.514921  0.561460  0.782364  1
  O  O31  1  0.485079  0.438540  0.217636  1
  O  O32  1  0.509524  0.938450  0.282228  1
  O  O33  1  0.488750  0.417270  0.931652  1
  O  O34  1  0.511250  0.582730  0.068348  1
  O  O35  1  0.269659  0.736491  0.368831  1
  O  O36  1  0.703877  0.213431  0.012745  1
  O  O37  1  0.203877  0.286569  0.012745  1
  O  O38  1  0.751249  0.241159  0.848166  1
  O  O39  1  0.727162  0.239470  0.131296  1
  O  O40  1  0.769659  0.763509  0.368831  1
  O  O41  1  0.985079  0.061460  0.217636  1
  O  O42  1  0.988750  0.082730  0.931652  1
  O  O43  1  0.772838  0.739470  0.868704  1
  O  O44  1  0.009524  0.561550  0.282228  1
  O  O45  1  0.758353  0.762361  0.651901  1
  O  O46  1  0.792711  0.787858  0.487321  1
  O  O47  1  0.230341  0.236491  0.631169  1
  O  O48  1  0.292711  0.712142  0.487321  1
  O  O49  1  0.985043  0.417406  0.431553  1
  O  O50  1  0.258353  0.737639  0.651901  1
  O  O51  1  0.251249  0.258841  0.848166  1
  O  O52  1  0.207289  0.212142  0.512679  1
  O  O53  1  0.707289  0.287858  0.512679  1
  O  O54  1  0.248751  0.758841  0.151834  1
  O  O55  1  0.490476  0.061550  0.717772  1
  O  O56  1  0.272838  0.760530  0.868704  1
  O  O57  1  0.741647  0.262361  0.348099  1
  O  O58  1  0.227162  0.260530  0.131296  1
  O  O59  1  0.241647  0.237639  0.348099  1
  O  O60  1  0.014957  0.582594  0.568447  1
  O  O61  1  0.296123  0.786569  0.987255  1
  O  O62  1  0.990476  0.438450  0.717772  1
  O  O63  1  0.730341  0.263509  0.631169  1
  O  O64  1  0.485043  0.082594  0.431553  1
  O  O65  1  0.514957  0.917406  0.568447  1
  O  O66  1  0.748751  0.741159  0.151834  1
  O  O67  1  0.796123  0.713431  0.987255  1
