# generated using pymatgen
data_Nd4Re2O11
_symmetry_space_group_name_H-M   'P 1'
_cell_length_a   5.65973022
_cell_length_b   12.82314384
_cell_length_c   12.82314384
_cell_angle_alpha   90.00000000
_cell_angle_beta   90.00000000
_cell_angle_gamma   90.00000000
_symmetry_Int_Tables_number   1
_chemical_formula_structural   Nd4Re2O11
_chemical_formula_sum   'Nd16 Re8 O44'
_cell_volume   930.64652081
_cell_formula_units_Z   4
loop_
 _symmetry_equiv_pos_site_id
 _symmetry_equiv_pos_as_xyz
  1  'x, y, z'
loop_
 _atom_site_type_symbol
 _atom_site_label
 _atom_site_symmetry_multiplicity
 _atom_site_fract_x
 _atom_site_fract_y
 _atom_site_fract_z
 _atom_site_occupancy
  O  O0  1  0.250000  0.750000  0.750000  1
  O  O1  1  0.750000  0.250000  0.250000  1
  O  O2  1  0.750000  0.750000  0.750000  1
  O  O3  1  0.250000  0.250000  0.250000  1
  O  O4  1  0.307677  0.955220  0.841819  1
  O  O5  1  0.807677  0.158181  0.455220  1
  O  O6  1  0.807677  0.341819  0.044780  1
  O  O7  1  0.307677  0.544780  0.658181  1
  O  O8  1  0.692323  0.044780  0.158181  1
  O  O9  1  0.192323  0.841819  0.544780  1
  O  O10  1  0.192323  0.658181  0.955220  1
  O  O11  1  0.692323  0.455220  0.341819  1
  O  O12  1  0.513953  0.648988  0.304435  1
  O  O13  1  0.013953  0.695565  0.148988  1
  O  O14  1  0.013953  0.804435  0.351012  1
  O  O15  1  0.513953  0.851012  0.195565  1
  O  O16  1  0.288923  0.456142  0.871639  1
  O  O17  1  0.486047  0.351012  0.695565  1
  O  O18  1  0.986047  0.195565  0.648988  1
  O  O19  1  0.486047  0.148988  0.804435  1
  O  O20  1  0.711077  0.543858  0.128361  1
  O  O21  1  0.211077  0.871639  0.043858  1
  O  O22  1  0.211077  0.628361  0.456142  1
  O  O23  1  0.711077  0.956142  0.371639  1
  O  O24  1  0.206915  0.030060  0.191615  1
  O  O25  1  0.706915  0.808385  0.530060  1
  O  O26  1  0.706915  0.691615  0.969940  1
  O  O27  1  0.206915  0.469940  0.308385  1
  O  O28  1  0.793085  0.969940  0.808385  1
  O  O29  1  0.293085  0.191615  0.469940  1
  O  O30  1  0.293085  0.308385  0.030060  1
  O  O31  1  0.793085  0.530060  0.691615  1
  O  O32  1  0.194965  0.002379  0.408755  1
  O  O33  1  0.694965  0.591244  0.502379  1
  O  O34  1  0.694965  0.908756  0.997621  1
  O  O35  1  0.194965  0.497621  0.091245  1
  O  O36  1  0.805035  0.997621  0.591244  1
  O  O37  1  0.305035  0.408755  0.497621  1
  O  O38  1  0.305035  0.091245  0.002379  1
  O  O39  1  0.805035  0.502379  0.908756  1
  O  O40  1  0.288923  0.043858  0.628361  1
  O  O41  1  0.788923  0.371639  0.543858  1
  O  O42  1  0.788923  0.128361  0.956142  1
  O  O43  1  0.986047  0.304435  0.851012  1
  Nd  Nd44  1  0.001865  0.184810  0.118167  1
  Nd  Nd45  1  0.501865  0.881833  0.684810  1
  Nd  Nd46  1  0.501865  0.618167  0.815190  1
  Nd  Nd47  1  0.001865  0.315190  0.381833  1
  Nd  Nd48  1  0.998135  0.815190  0.881833  1
  Nd  Nd49  1  0.498135  0.118167  0.315190  1
  Nd  Nd50  1  0.498135  0.381833  0.184810  1
  Nd  Nd51  1  0.998135  0.684810  0.618167  1
  Nd  Nd52  1  0.929990  0.611336  0.306507  1
  Nd  Nd53  1  0.429990  0.693493  0.111336  1
  Nd  Nd54  1  0.429990  0.806507  0.388664  1
  Nd  Nd55  1  0.929990  0.888664  0.193493  1
  Nd  Nd56  1  0.070010  0.388664  0.693493  1
  Nd  Nd57  1  0.570010  0.306507  0.888664  1
  Nd  Nd58  1  0.570010  0.193493  0.611336  1
  Nd  Nd59  1  0.070010  0.111336  0.806507  1
  Re  Re60  1  0.569283  0.023901  0.913732  1
  Re  Re61  1  0.069283  0.086268  0.523901  1
  Re  Re62  1  0.069283  0.413732  0.976099  1
  Re  Re63  1  0.569283  0.476099  0.586268  1
  Re  Re64  1  0.430717  0.976099  0.086268  1
  Re  Re65  1  0.930717  0.913732  0.476099  1
  Re  Re66  1  0.930717  0.586268  0.023901  1
  Re  Re67  1  0.430717  0.523901  0.413732  1
