# generated using pymatgen
data_Ce5Y2O13
_symmetry_space_group_name_H-M   'P 1'
_cell_length_a   3.83090949
_cell_length_b   3.83090949
_cell_length_c   22.40921772
_cell_angle_alpha   94.90340870
_cell_angle_beta   90.00000000
_cell_angle_gamma   120.00000000
_symmetry_Int_Tables_number   1
_chemical_formula_structural   Ce5Y2O13
_chemical_formula_sum   'Ce5 Y2 O13'
_cell_volume   283.42319160
_cell_formula_units_Z   1
loop_
 _symmetry_equiv_pos_site_id
 _symmetry_equiv_pos_as_xyz
  1  'x, y, z'
loop_
 _atom_site_type_symbol
 _atom_site_label
 _atom_site_symmetry_multiplicity
 _atom_site_fract_x
 _atom_site_fract_y
 _atom_site_fract_z
 _atom_site_occupancy
  Ce  Ce0  1  0.427910  0.855821  0.283731  1
  Ce  Ce1  1  0.142244  0.284488  0.426732  1
  Ce  Ce2  1  0.856547  0.713093  0.569639  1
  Ce  Ce3  1  0.570865  0.141730  0.712595  1
  Ce  Ce4  1  0.284969  0.569937  0.854906  1
  Y  Y5  1  0.998934  0.997867  0.996801  1
  Y  Y6  1  0.716263  0.432527  0.148790  1
  O  O7  1  0.392957  0.785914  0.178871  1
  O  O8  1  0.030783  0.061566  0.092350  1
  O  O9  1  0.107499  0.214997  0.322496  1
  O  O10  1  0.464521  0.929042  0.393564  1
  O  O11  1  0.750304  0.500607  0.250911  1
  O  O12  1  0.821763  0.643527  0.465290  1
  O  O13  1  0.178833  0.357666  0.536499  1
  O  O14  1  0.250407  0.500813  0.751220  1
  O  O15  1  0.893150  0.786301  0.679450  1
  O  O16  1  0.536076  0.072153  0.608229  1
  O  O17  1  0.964018  0.928038  0.892056  1
  O  O18  1  0.607193  0.214386  0.821579  1
  O  O19  1  0.326191  0.652384  0.978575  1
