# generated using pymatgen
data_Nd2Ti2O7
_symmetry_space_group_name_H-M   'P 1'
_cell_length_a   5.52429401
_cell_length_b   7.70291396
_cell_length_c   26.56776638
_cell_angle_alpha   98.23149042
_cell_angle_beta   90.00000000
_cell_angle_gamma   90.00000000
_symmetry_Int_Tables_number   1
_chemical_formula_structural   Nd2Ti2O7
_chemical_formula_sum   'Nd16 Ti16 O56'
_cell_volume   1118.89525500
_cell_formula_units_Z   8
loop_
 _symmetry_equiv_pos_site_id
 _symmetry_equiv_pos_as_xyz
  1  'x, y, z'
loop_
 _atom_site_type_symbol
 _atom_site_label
 _atom_site_symmetry_multiplicity
 _atom_site_fract_x
 _atom_site_fract_y
 _atom_site_fract_z
 _atom_site_occupancy
  O  O0  1  0.987515  0.036096  0.489160  1
  O  O1  1  0.487515  0.963904  0.510840  1
  O  O2  1  0.988654  0.452892  0.488187  1
  O  O3  1  0.488654  0.547108  0.511813  1
  O  O4  1  0.688557  0.277856  0.555711  1
  O  O5  1  0.188557  0.722144  0.444289  1
  O  O6  1  0.841260  0.773276  0.546210  1
  O  O7  1  0.341260  0.226724  0.453790  1
  O  O8  1  0.068531  0.520592  0.590284  1
  O  O9  1  0.568531  0.479408  0.409716  1
  O  O10  1  0.065475  0.071174  0.591098  1
  O  O11  1  0.565475  0.928826  0.408902  1
  O  O12  1  0.555402  0.621230  0.615891  1
  O  O13  1  0.055402  0.378770  0.384109  1
  O  O14  1  0.551958  0.995376  0.614486  1
  O  O15  1  0.051958  0.004624  0.385514  1
  O  O16  1  0.312292  0.327398  0.653893  1
  O  O17  1  0.812292  0.672602  0.346107  1
  O  O18  1  0.148850  0.825372  0.653090  1
  O  O19  1  0.648850  0.174628  0.346910  1
  O  O20  1  0.922314  0.565297  0.693481  1
  O  O21  1  0.932488  0.417319  0.785878  1
  O  O22  1  0.422314  0.434703  0.306519  1
  O  O23  1  0.447781  0.873855  0.297303  1
  O  O24  1  0.415382  0.631023  0.720789  1
  O  O25  1  0.915382  0.368977  0.279211  1
  O  O26  1  0.433018  0.082778  0.714183  1
  O  O27  1  0.933018  0.917222  0.285817  1
  O  O28  1  0.447221  0.373982  0.797281  1
  O  O29  1  0.947221  0.626018  0.202719  1
  O  O30  1  0.421534  0.934823  0.806573  1
  O  O31  1  0.921534  0.065177  0.193427  1
  O  O32  1  0.485974  0.463952  0.010832  1
  O  O33  1  0.985974  0.536048  0.989168  1
  O  O34  1  0.487106  0.047081  0.011833  1
  O  O35  1  0.987106  0.952919  0.988167  1
  O  O36  1  0.687051  0.777859  0.055714  1
  O  O37  1  0.187051  0.222141  0.944286  1
  O  O38  1  0.839726  0.273284  0.046223  1
  O  O39  1  0.339726  0.726716  0.953777  1
  O  O40  1  0.067135  0.020545  0.090270  1
  O  O41  1  0.567135  0.979455  0.909730  1
  O  O42  1  0.063988  0.571244  0.091114  1
  O  O43  1  0.563988  0.428756  0.908886  1
  O  O44  1  0.550466  0.495336  0.114460  1
  O  O45  1  0.050466  0.504664  0.885540  1
  O  O46  1  0.554057  0.121214  0.115915  1
  O  O47  1  0.054057  0.878786  0.884085  1
  O  O48  1  0.311509  0.827335  0.153869  1
  O  O49  1  0.811509  0.172665  0.846131  1
  O  O50  1  0.147666  0.325300  0.153071  1
  O  O51  1  0.647666  0.674700  0.846929  1
  O  O52  1  0.414686  0.130873  0.220783  1
  O  O53  1  0.914686  0.869127  0.779217  1
  O  O54  1  0.432488  0.582681  0.214122  1
  O  O55  1  0.947781  0.126145  0.702697  1
  Ti  Ti56  1  0.744890  0.533341  0.562026  1
  Ti  Ti57  1  0.244890  0.466659  0.437974  1
  Ti  Ti58  1  0.743034  0.028905  0.560623  1
  Ti  Ti59  1  0.243034  0.971095  0.439377  1
  Ti  Ti60  1  0.206936  0.577460  0.663040  1
  Ti  Ti61  1  0.706936  0.422540  0.336960  1
  Ti  Ti62  1  0.216156  0.089915  0.660163  1
  Ti  Ti63  1  0.716156  0.910085  0.339837  1
  Ti  Ti64  1  0.715425  0.410148  0.839879  1
  Ti  Ti65  1  0.215425  0.589852  0.160121  1
  Ti  Ti66  1  0.706276  0.922600  0.836977  1
  Ti  Ti67  1  0.206276  0.077400  0.163023  1
  Ti  Ti68  1  0.241601  0.471074  0.939387  1
  Ti  Ti69  1  0.741601  0.528926  0.060613  1
  Ti  Ti70  1  0.243478  0.966654  0.937964  1
  Ti  Ti71  1  0.743478  0.033346  0.062036  1
  Nd  Nd72  1  0.247275  0.273291  0.542710  1
  Nd  Nd73  1  0.747275  0.726709  0.457290  1
  Nd  Nd74  1  0.260811  0.779749  0.561988  1
  Nd  Nd75  1  0.760810  0.220251  0.438012  1
  Nd  Nd76  1  0.645206  0.360529  0.715351  1
  Nd  Nd77  1  0.145206  0.639471  0.284649  1
  Nd  Nd78  1  0.717837  0.840062  0.691025  1
  Nd  Nd79  1  0.217837  0.159938  0.308975  1
  Nd  Nd80  1  0.217420  0.660006  0.808938  1
  Nd  Nd81  1  0.717420  0.339994  0.191062  1
  Nd  Nd82  1  0.144835  0.139622  0.784674  1
  Nd  Nd83  1  0.644835  0.860378  0.215326  1
  Nd  Nd84  1  0.759265  0.720231  0.938029  1
  Nd  Nd85  1  0.259265  0.279769  0.061971  1
  Nd  Nd86  1  0.745956  0.226685  0.957294  1
  Nd  Nd87  1  0.245956  0.773315  0.042706  1
