# generated using pymatgen
data_Nd4Ti9O24
_symmetry_space_group_name_H-M   'P 1'
_cell_length_a   10.16954370
_cell_length_b   10.16954347
_cell_length_c   19.16134637
_cell_angle_alpha   104.85965066
_cell_angle_beta   104.85965032
_cell_angle_gamma   91.92497945
_symmetry_Int_Tables_number   1
_chemical_formula_structural   Nd4Ti9O24
_chemical_formula_sum   'Nd16 Ti36 O96'
_cell_volume   1840.82991700
_cell_formula_units_Z   4
loop_
 _symmetry_equiv_pos_site_id
 _symmetry_equiv_pos_as_xyz
  1  'x, y, z'
loop_
 _atom_site_type_symbol
 _atom_site_label
 _atom_site_symmetry_multiplicity
 _atom_site_fract_x
 _atom_site_fract_y
 _atom_site_fract_z
 _atom_site_occupancy
  Nd  Nd0  1  0.884187  0.431879  0.257451  1
  Nd  Nd1  1  0.115813  0.568121  0.742549  1
  Nd  Nd2  1  0.732314  0.982314  0.964629  1
  Nd  Nd3  1  0.568121  0.115813  0.242549  1
  Nd  Nd4  1  0.174428  0.126736  0.242549  1
  Nd  Nd5  1  0.126736  0.174428  0.742549  1
  Nd  Nd6  1  0.503760  0.753760  0.507519  1
  Nd  Nd7  1  0.825572  0.873264  0.757451  1
  Nd  Nd8  1  0.982314  0.732314  0.464629  1
  Nd  Nd9  1  0.017686  0.267686  0.535371  1
  Nd  Nd10  1  0.753760  0.503760  0.007519  1
  Nd  Nd11  1  0.873264  0.825572  0.257451  1
  Nd  Nd12  1  0.267686  0.017686  0.035371  1
  Nd  Nd13  1  0.246240  0.496240  0.992481  1
  Nd  Nd14  1  0.431879  0.884187  0.757451  1
  Nd  Nd15  1  0.496240  0.246240  0.492481  1
  Ti  Ti16  1  0.428631  0.740000  0.924420  1
  Ti  Ti17  1  0.260000  0.571369  0.575580  1
  Ti  Ti18  1  0.571369  0.260000  0.075580  1
  Ti  Ti19  1  0.916012  0.402487  0.841938  1
  Ti  Ti20  1  0.574074  0.560549  0.158062  1
  Ti  Ti21  1  0.804018  0.552759  0.590328  1
  Ti  Ti22  1  0.355499  0.352861  0.169072  1
  Ti  Ti23  1  0.597513  0.083988  0.658062  1
  Ti  Ti24  1  0.439451  0.425926  0.341938  1
  Ti  Ti25  1  0.195982  0.447241  0.409672  1
  Ti  Ti26  1  0.995789  0.184421  0.924420  1
  Ti  Ti27  1  0.919890  0.169890  0.339780  1
  Ti  Ti28  1  0.313573  0.816211  0.169072  1
  Ti  Ti29  1  0.552759  0.804018  0.090328  1
  Ti  Ti30  1  0.647139  0.644501  0.330928  1
  Ti  Ti31  1  0.830110  0.080110  0.160220  1
  Ti  Ti32  1  0.815579  0.004210  0.575580  1
  Ti  Ti33  1  0.962431  0.713690  0.909672  1
  Ti  Ti34  1  0.713690  0.962431  0.409672  1
  Ti  Ti35  1  0.083988  0.597513  0.158062  1
  Ti  Ti36  1  0.004210  0.815579  0.075580  1
  Ti  Ti37  1  0.425926  0.439451  0.841938  1
  Ti  Ti38  1  0.080110  0.830110  0.660220  1
  Ti  Ti39  1  0.740000  0.428631  0.424420  1
  Ti  Ti40  1  0.644501  0.647139  0.830928  1
  Ti  Ti41  1  0.286310  0.037569  0.590328  1
  Ti  Ti42  1  0.447241  0.195982  0.909672  1
  Ti  Ti43  1  0.169890  0.919890  0.839780  1
  Ti  Ti44  1  0.183789  0.686427  0.330928  1
  Ti  Ti45  1  0.184421  0.995789  0.424420  1
  Ti  Ti46  1  0.686427  0.183789  0.830928  1
  Ti  Ti47  1  0.560549  0.574074  0.658062  1
  Ti  Ti48  1  0.037569  0.286310  0.090328  1
  Ti  Ti49  1  0.816211  0.313573  0.669072  1
  Ti  Ti50  1  0.352861  0.355499  0.669072  1
  Ti  Ti51  1  0.402487  0.916012  0.341938  1
  O  O52  1  0.393663  0.973883  0.253900  1
  O  O53  1  0.045824  0.111077  0.415427  1
  O  O54  1  0.842084  0.077427  0.490021  1
  O  O55  1  0.936676  0.696312  0.668987  1
  O  O56  1  0.360960  0.350969  0.404663  1
  O  O57  1  0.456297  0.946307  0.595337  1
  O  O58  1  0.082679  0.584126  0.382576  1
  O  O59  1  0.917321  0.415874  0.617424  1
  O  O60  1  0.291440  0.538173  0.337081  1
  O  O61  1  0.584126  0.082679  0.882576  1
  O  O62  1  0.147937  0.412595  0.490021  1
  O  O63  1  0.954176  0.888923  0.584573  1
  O  O64  1  0.688317  0.406956  0.148286  1
  O  O65  1  0.415874  0.917321  0.117424  1
  O  O66  1  0.741330  0.959970  0.648286  1
  O  O67  1  0.587405  0.852063  0.009979  1
  O  O68  1  0.422389  0.422857  0.094650  1
  O  O69  1  0.798908  0.545640  0.837081  1
  O  O70  1  0.130397  0.695649  0.584573  1
  O  O71  1  0.922573  0.157916  0.009979  1
  O  O72  1  0.064828  0.830009  0.358884  1
  O  O73  1  0.888923  0.954176  0.084573  1
  O  O74  1  0.328206  0.827738  0.405350  1
  O  O75  1  0.399118  0.683091  0.006605  1
  O  O76  1  0.593044  0.311683  0.351714  1
  O  O77  1  0.798450  0.799897  0.882576  1
  O  O78  1  0.107488  0.323514  0.006605  1
  O  O79  1  0.053693  0.543703  0.904663  1
  O  O80  1  0.360237  0.280017  0.253900  1
  O  O81  1  0.545640  0.798908  0.337081  1
  O  O82  1  0.323514  0.107488  0.506605  1
  O  O83  1  0.577143  0.577611  0.405350  1
  O  O84  1  0.852063  0.587405  0.509979  1
  O  O85  1  0.026117  0.606337  0.246100  1
  O  O86  1  0.799897  0.798450  0.382576  1
  O  O87  1  0.311683  0.593044  0.851714  1
  O  O88  1  0.200103  0.201550  0.617424  1
  O  O89  1  0.454360  0.201092  0.662919  1
  O  O90  1  0.528875  0.794056  0.858884  1
  O  O91  1  0.600882  0.316909  0.993395  1
  O  O92  1  0.461827  0.708560  0.162919  1
  O  O93  1  0.935172  0.169991  0.641116  1
  O  O94  1  0.037050  0.962950  0.750000  1
  O  O95  1  0.543703  0.053693  0.404663  1
  O  O96  1  0.303688  0.063324  0.831013  1
  O  O97  1  0.639763  0.719983  0.746100  1
  O  O98  1  0.869603  0.304351  0.415427  1
  O  O99  1  0.501100  0.498900  0.250000  1
  O  O100  1  0.751100  0.248900  0.750000  1
  O  O101  1  0.157916  0.922573  0.509979  1
  O  O102  1  0.471125  0.205944  0.141116  1
  O  O103  1  0.280017  0.360237  0.753900  1
  O  O104  1  0.708560  0.461827  0.662919  1
  O  O105  1  0.406956  0.688317  0.648286  1
  O  O106  1  0.683091  0.399118  0.506605  1
  O  O107  1  0.201092  0.454360  0.162919  1
  O  O108  1  0.027325  0.767689  0.831013  1
  O  O109  1  0.172262  0.671794  0.094650  1
  O  O110  1  0.787050  0.212950  0.250000  1
  O  O111  1  0.676486  0.892512  0.493395  1
  O  O112  1  0.063324  0.303688  0.331013  1
  O  O113  1  0.498900  0.501100  0.750000  1
  O  O114  1  0.719983  0.639763  0.246100  1
  O  O115  1  0.422857  0.422389  0.594650  1
  O  O116  1  0.671794  0.172262  0.594650  1
  O  O117  1  0.304351  0.869603  0.915427  1
  O  O118  1  0.205944  0.471125  0.641116  1
  O  O119  1  0.695649  0.130397  0.084573  1
  O  O120  1  0.232311  0.972675  0.668987  1
  O  O121  1  0.973883  0.393663  0.753900  1
  O  O122  1  0.350969  0.360960  0.904663  1
  O  O123  1  0.959970  0.741330  0.148286  1
  O  O124  1  0.040030  0.258670  0.851714  1
  O  O125  1  0.248900  0.751100  0.250000  1
  O  O126  1  0.212950  0.787050  0.750000  1
  O  O127  1  0.316909  0.600882  0.493395  1
  O  O128  1  0.412595  0.147937  0.990021  1
  O  O129  1  0.258670  0.040030  0.351714  1
  O  O130  1  0.606337  0.026117  0.746100  1
  O  O131  1  0.639040  0.649031  0.595337  1
  O  O132  1  0.077427  0.842084  0.990021  1
  O  O133  1  0.111077  0.045824  0.915427  1
  O  O134  1  0.794056  0.528875  0.358884  1
  O  O135  1  0.538173  0.291440  0.837081  1
  O  O136  1  0.962950  0.037050  0.250000  1
  O  O137  1  0.169991  0.935172  0.141116  1
  O  O138  1  0.892512  0.676486  0.993395  1
  O  O139  1  0.577611  0.577143  0.905350  1
  O  O140  1  0.201550  0.200103  0.117424  1
  O  O141  1  0.767689  0.027325  0.331013  1
  O  O142  1  0.946307  0.456297  0.095337  1
  O  O143  1  0.696312  0.936676  0.168987  1
  O  O144  1  0.827738  0.328206  0.905350  1
  O  O145  1  0.972675  0.232311  0.168987  1
  O  O146  1  0.830009  0.064828  0.858884  1
  O  O147  1  0.649031  0.639040  0.095337  1
