# generated using pymatgen
data_Nd16Zr16O49
_symmetry_space_group_name_H-M   'P 1'
_cell_length_a   7.58869466
_cell_length_b   7.60677507
_cell_length_c   30.48224217
_cell_angle_alpha   59.92663550
_cell_angle_beta   59.81871912
_cell_angle_gamma   59.34255322
_symmetry_Int_Tables_number   1
_chemical_formula_structural   Nd16Zr16O49
_chemical_formula_sum   'Nd16 Zr16 O49'
_cell_volume   1235.56080580
_cell_formula_units_Z   1
loop_
 _symmetry_equiv_pos_site_id
 _symmetry_equiv_pos_as_xyz
  1  'x, y, z'
loop_
 _atom_site_type_symbol
 _atom_site_label
 _atom_site_symmetry_multiplicity
 _atom_site_fract_x
 _atom_site_fract_y
 _atom_site_fract_z
 _atom_site_occupancy
  Nd  Nd0  1  0.992082  0.003217  0.002024  1
  Nd  Nd1  1  0.993640  0.011160  0.124295  1
  Nd  Nd2  1  0.004606  0.501057  0.995641  1
  Nd  Nd3  1  0.506529  0.998734  0.000318  1
  Nd  Nd4  1  0.000876  0.991060  0.252175  1
  Nd  Nd5  1  0.988266  0.006017  0.374073  1
  Nd  Nd6  1  0.998434  0.497962  0.254100  1
  Nd  Nd7  1  0.504987  0.002267  0.247651  1
  Nd  Nd8  1  0.995705  0.997050  0.501741  1
  Nd  Nd9  1  0.991357  0.989514  0.625459  1
  Nd  Nd10  1  0.992223  0.497941  0.505114  1
  Nd  Nd11  1  0.984820  0.004913  0.753393  1
  Nd  Nd12  1  0.500707  0.006025  0.497851  1
  Nd  Nd13  1  0.995898  0.994077  0.874205  1
  Nd  Nd14  1  0.994070  0.499076  0.747742  1
  Nd  Nd15  1  0.500662  0.003064  0.751166  1
  Zr  Zr16  1  0.482595  0.028327  0.123276  1
  Zr  Zr17  1  0.498724  0.494863  0.121669  1
  Zr  Zr18  1  0.490719  0.501243  0.251714  1
  Zr  Zr19  1  0.491907  0.014538  0.374534  1
  Zr  Zr20  1  0.003238  0.489663  0.126096  1
  Zr  Zr21  1  0.489847  0.496741  0.374493  1
  Zr  Zr22  1  0.491740  0.495834  0.502975  1
  Zr  Zr23  1  0.497860  0.006324  0.624354  1
  Zr  Zr24  1  0.003708  0.500214  0.373975  1
  Zr  Zr25  1  0.488333  0.492769  0.626232  1
  Zr  Zr26  1  0.490847  0.496610  0.753464  1
  Zr  Zr27  1  0.485667  0.015702  0.874823  1
  Zr  Zr28  1  0.008037  0.500488  0.623681  1
  Zr  Zr29  1  0.491741  0.498963  0.875301  1
  Zr  Zr30  1  0.497861  0.489450  0.005462  1
  Zr  Zr31  1  0.003208  0.498476  0.875395  1
  O  O32  1  0.129139  0.124976  0.030823  1
  O  O33  1  0.341135  0.397748  0.095397  1
  O  O34  1  0.128900  0.123588  0.280544  1
  O  O35  1  0.600716  0.140869  0.037478  1
  O  O36  1  0.606633  0.145129  0.149831  1
  O  O37  1  0.611665  0.607250  0.034207  1
  O  O38  1  0.152946  0.596816  0.287800  1
  O  O39  1  0.407356  0.827311  0.108201  1
  O  O40  1  0.410564  0.424264  0.205768  1
  O  O41  1  0.411622  0.840097  0.206303  1
  O  O42  1  0.844823  0.413637  0.102878  1
  O  O43  1  0.595587  0.156330  0.288916  1
  O  O44  1  0.124537  0.122499  0.532048  1
  O  O45  1  0.597602  0.154117  0.398878  1
  O  O46  1  0.848398  0.414169  0.206178  1
  O  O47  1  0.595320  0.590984  0.289219  1
  O  O48  1  0.860054  0.822103  0.101219  1
  O  O49  1  0.407296  0.827894  0.359740  1
  O  O50  1  0.399486  0.424298  0.457628  1
  O  O51  1  0.152689  0.600059  0.538520  1
  O  O52  1  0.404717  0.843876  0.457011  1
  O  O53  1  0.151009  0.598875  0.648850  1
  O  O54  1  0.126267  0.125734  0.780822  1
  O  O55  1  0.597816  0.156664  0.536887  1
  O  O56  1  0.852132  0.395843  0.355228  1
  O  O57  1  0.883559  0.872178  0.217638  1
  O  O58  1  0.849667  0.415070  0.456344  1
  O  O59  1  0.591315  0.152316  0.651682  1
  O  O60  1  0.587734  0.592940  0.540652  1
  O  O61  1  0.852152  0.832104  0.355381  1
  O  O62  1  0.402007  0.843151  0.607359  1
  O  O63  1  0.397724  0.426285  0.711891  1
  O  O64  1  0.594567  0.154948  0.789048  1
  O  O65  1  0.396234  0.833737  0.707738  1
  O  O66  1  0.152543  0.595972  0.899712  1
  O  O67  1  0.843038  0.401864  0.606954  1
  O  O68  1  0.882294  0.872120  0.467418  1
  O  O69  1  0.848895  0.398942  0.707400  1
  O  O70  1  0.594402  0.155394  0.898268  1
  O  O71  1  0.840577  0.845012  0.601946  1
  O  O72  1  0.594201  0.594288  0.788962  1
  O  O73  1  0.403362  0.844295  0.855762  1
  O  O74  1  0.412155  0.426682  0.959316  1
  O  O75  1  0.882891  0.874402  0.718876  1
  O  O76  1  0.405042  0.825979  0.957583  1
  O  O77  1  0.848546  0.413620  0.853218  1
  O  O78  1  0.845236  0.395354  0.958793  1
  O  O79  1  0.854241  0.832409  0.848357  1
  O  O80  1  0.888516  0.877470  0.966791  1
