# generated using pymatgen
data_Nd9Ti10O30
_symmetry_space_group_name_H-M   'P 1'
_cell_length_a   27.53405846
_cell_length_b   7.87284722
_cell_length_c   9.58195465
_cell_angle_alpha   66.23705606
_cell_angle_beta   54.88205550
_cell_angle_gamma   45.57361439
_symmetry_Int_Tables_number   1
_chemical_formula_structural   Nd9Ti10O30
_chemical_formula_sum   'Nd18 Ti20 O60'
_cell_volume   1213.34123702
_cell_formula_units_Z   2
loop_
 _symmetry_equiv_pos_site_id
 _symmetry_equiv_pos_as_xyz
  1  'x, y, z'
loop_
 _atom_site_type_symbol
 _atom_site_label
 _atom_site_symmetry_multiplicity
 _atom_site_fract_x
 _atom_site_fract_y
 _atom_site_fract_z
 _atom_site_occupancy
  Nd  Nd0  1  0.134106  0.060518  0.247878  1
  Nd  Nd1  1  0.054892  0.454017  0.756550  1
  Nd  Nd2  1  0.142871  0.546786  0.248904  1
  Nd  Nd3  1  0.341449  0.043616  0.242901  1
  Nd  Nd4  1  0.061051  0.952007  0.749330  1
  Nd  Nd5  1  0.260266  0.447005  0.751664  1
  Nd  Nd6  1  0.343571  0.543794  0.247315  1
  Nd  Nd7  1  0.536546  0.049886  0.254554  1
  Nd  Nd8  1  0.261107  0.958869  0.752879  1
  Nd  Nd9  1  0.458564  0.444406  0.749505  1
  Nd  Nd10  1  0.542114  0.544437  0.251339  1
  Nd  Nd11  1  0.739786  0.045131  0.253417  1
  Nd  Nd12  1  0.655387  0.458947  0.746651  1
  Nd  Nd13  1  0.744208  0.541116  0.251788  1
  Nd  Nd14  1  0.938458  0.047557  0.250144  1
  Nd  Nd15  1  0.659641  0.960316  0.750275  1
  Nd  Nd16  1  0.859675  0.447271  0.746963  1
  Nd  Nd17  1  0.861250  0.952318  0.748933  1
  Ti  Ti18  1  0.099420  0.005353  0.000333  1
  Ti  Ti19  1  -0.000120  0.005562  0.497580  1
  Ti  Ti20  1  0.096265  0.502925  0.002783  1
  Ti  Ti21  1  0.997805  0.502529  0.497271  1
  Ti  Ti22  1  0.302943  0.996286  0.994313  1
  Ti  Ti23  1  0.200334  0.999545  0.498832  1
  Ti  Ti24  1  0.302625  0.493673  0.998024  1
  Ti  Ti25  1  0.200459  0.498954  0.498892  1
  Ti  Ti26  1  0.498752  0.997285  0.997739  1
  Ti  Ti27  1  0.400959  0.995095  0.506910  1
  Ti  Ti28  1  0.498884  0.510385  0.993912  1
  Ti  Ti29  1  0.401208  0.495561  0.501469  1
  Ti  Ti30  1  0.597306  0.998255  0.502697  1
  Ti  Ti31  1  0.699622  0.001028  0.000433  1
  Ti  Ti32  1  0.700063  0.500612  0.999751  1
  Ti  Ti33  1  0.596761  0.509639  0.505186  1
  Ti  Ti34  1  0.901005  0.989848  0.005839  1
  Ti  Ti35  1  0.803063  0.990267  0.495012  1
  Ti  Ti36  1  0.801562  0.503425  0.495313  1
  Ti  Ti37  1  0.899216  0.502352  0.007241  1
  O  O38  1  0.082651  0.278531  0.029610  1
  O  O39  1  0.068931  0.487895  0.250395  1
  O  O40  1  0.008673  0.210154  0.954688  1
  O  O41  1  0.090813  0.213952  0.545632  1
  O  O42  1  0.009705  0.705106  0.544093  1
  O  O43  1  0.039878  0.969869  0.249213  1
  O  O44  1  0.163993  0.016857  0.747015  1
  O  O45  1  0.275564  0.288236  0.042688  1
  O  O46  1  0.193929  0.287090  0.452834  1
  O  O47  1  0.191963  0.786280  0.045837  1
  O  O48  1  0.110179  0.788169  0.454497  1
  O  O49  1  0.129920  0.518789  0.747823  1
  O  O50  1  0.269652  0.479606  0.250682  1
  O  O51  1  0.291402  0.208477  0.540291  1
  O  O52  1  0.206955  0.213897  0.960847  1
  O  O53  1  0.208503  0.706403  0.544910  1
  O  O54  1  0.128070  0.704972  0.951884  1
  O  O55  1  0.235888  0.978317  0.250146  1
  O  O56  1  0.356950  0.015761  0.750725  1
  O  O57  1  0.476340  0.285629  0.045110  1
  O  O58  1  0.391501  0.290877  0.457832  1
  O  O59  1  0.389012  0.778387  0.054367  1
  O  O60  1  0.309795  0.789986  0.452011  1
  O  O61  1  0.328294  0.531770  0.749662  1
  O  O62  1  0.468770  0.482883  0.248481  1
  O  O63  1  0.493878  0.223860  0.528922  1
  O  O64  1  0.406367  0.221711  0.970301  1
  O  O65  1  0.407281  0.710110  0.542772  1
  O  O66  1  0.324563  0.710045  0.956598  1
  O  O67  1  0.437491  0.978222  0.252593  1
  O  O68  1  0.562904  0.013388  0.750280  1
  O  O69  1  0.675006  0.288630  0.046490  1
  O  O70  1  0.594468  0.284879  0.455716  1
  O  O71  1  0.591198  0.793137  0.046884  1
  O  O72  1  0.511488  0.777595  0.445402  1
  O  O73  1  0.535489  0.493167  0.749551  1
  O  O74  1  0.671836  0.475103  0.248999  1
  O  O75  1  0.691725  0.207960  0.541838  1
  O  O76  1  0.607712  0.208927  0.960021  1
  O  O77  1  0.616666  0.694687  0.526831  1
  O  O78  1  0.527758  0.694281  0.973267  1
  O  O79  1  0.638378  0.975862  0.248375  1
  O  O80  1  0.759754  0.029762  0.751837  1
  O  O81  1  0.789667  0.293668  0.463486  1
  O  O82  1  0.875028  0.293847  0.034971  1
  O  O83  1  0.707960  0.796158  0.456902  1
  O  O84  1  0.790850  0.794416  0.042940  1
  O  O85  1  0.726361  0.526787  0.751571  1
  O  O86  1  0.863437  0.481763  0.251083  1
  O  O87  1  0.890468  0.212336  0.544776  1
  O  O88  1  0.808741  0.212462  0.953598  1
  O  O89  1  0.800397  0.721909  0.558453  1
  O  O90  1  0.725820  0.709789  0.954800  1
  O  O91  1  0.834896  0.003870  0.250285  1
  O  O92  1  0.962992  0.014250  0.749669  1
  O  O93  1  0.994872  0.278351  0.470811  1
  O  O94  1  0.905785  0.809539  0.472462  1
  O  O95  1  0.994804  0.810205  0.027453  1
  O  O96  1  0.928490  0.523747  0.751431  1
  O  O97  1  0.922500  0.721108  0.946839  1
