# generated using pymatgen
data_CeNi3
_symmetry_space_group_name_H-M   'P 1'
_cell_length_a   4.93653196
_cell_length_b   4.93653158
_cell_length_c   16.52026708
_cell_angle_alpha   90.00000000
_cell_angle_beta   90.00000000
_cell_angle_gamma   120.00000252
_symmetry_Int_Tables_number   1
_chemical_formula_structural   CeNi3
_chemical_formula_sum   'Ce6 Ni18'
_cell_volume   348.65151599
_cell_formula_units_Z   6
loop_
 _symmetry_equiv_pos_site_id
 _symmetry_equiv_pos_as_xyz
  1  'x, y, z'
loop_
 _atom_site_type_symbol
 _atom_site_label
 _atom_site_symmetry_multiplicity
 _atom_site_fract_x
 _atom_site_fract_y
 _atom_site_fract_z
 _atom_site_occupancy
  Ce  Ce0  1  0.333333  0.666667  0.458398  1
  Ce  Ce1  1  0.666667  0.333333  0.958398  1
  Ce  Ce2  1  0.666667  0.333333  0.541602  1
  Ce  Ce3  1  0.333333  0.666667  0.041602  1
  Ce  Ce4  1  0.333333  0.666667  0.250000  1
  Ce  Ce5  1  0.666667  0.333333  0.750000  1
  Ni  Ni6  1  0.833830  0.166170  0.373288  1
  Ni  Ni7  1  0.166170  0.833830  0.873288  1
  Ni  Ni8  1  0.833830  0.667661  0.126712  1
  Ni  Ni9  1  0.166170  0.332339  0.626712  1
  Ni  Ni10  1  0.000000  0.000000  0.500000  1
  Ni  Ni11  1  0.667661  0.833830  0.873288  1
  Ni  Ni12  1  0.833830  0.667661  0.373288  1
  Ni  Ni13  1  0.166170  0.332339  0.873288  1
  Ni  Ni14  1  0.332339  0.166170  0.126712  1
  Ni  Ni15  1  0.666667  0.333333  0.250000  1
  Ni  Ni16  1  0.833830  0.166170  0.126712  1
  Ni  Ni17  1  0.000000  0.000000  0.750000  1
  Ni  Ni18  1  0.667661  0.833830  0.626712  1
  Ni  Ni19  1  0.332339  0.166170  0.373288  1
  Ni  Ni20  1  0.000000  0.000000  0.000000  1
  Ni  Ni21  1  0.166170  0.833830  0.626712  1
  Ni  Ni22  1  0.333333  0.666667  0.750000  1
  Ni  Ni23  1  0.000000  0.000000  0.250000  1
