# generated using pymatgen
data_NdCu(WO4)2
_symmetry_space_group_name_H-M   'P 1'
_cell_length_a   5.14106618
_cell_length_b   6.10273141
_cell_length_c   6.32946800
_cell_angle_alpha   108.33533758
_cell_angle_beta   92.28485676
_cell_angle_gamma   112.28572451
_symmetry_Int_Tables_number   1
_chemical_formula_structural   NdCu(WO4)2
_chemical_formula_sum   'Nd1 Cu1 W2 O8'
_cell_volume   171.53433394
_cell_formula_units_Z   1
loop_
 _symmetry_equiv_pos_site_id
 _symmetry_equiv_pos_as_xyz
  1  'x, y, z'
loop_
 _atom_site_type_symbol
 _atom_site_label
 _atom_site_symmetry_multiplicity
 _atom_site_fract_x
 _atom_site_fract_y
 _atom_site_fract_z
 _atom_site_occupancy
  O  O0  1  0.870759  0.167967  0.361503  1
  O  O1  1  0.346745  0.642213  0.499441  1
  O  O2  1  0.841975  0.198633  0.800169  1
  O  O3  1  0.393966  0.585993  0.937612  1
  O  O4  1  0.395834  0.155111  0.049436  1
  O  O5  1  0.871769  0.629475  0.187514  1
  O  O6  1  0.348608  0.211365  0.611323  1
  O  O7  1  0.900759  0.598874  0.748884  1
  Cu  Cu8  1  0.871672  0.898889  0.774598  1
  Nd  Nd9  1  0.371367  0.898649  0.274440  1
  W  W10  1  0.122039  0.412935  0.613853  1
  W  W11  1  0.620605  0.384496  0.935128  1
