# generated using pymatgen
data_Nd(Fe2B)6
_symmetry_space_group_name_H-M   'P 1'
_cell_length_a   6.07201446
_cell_length_b   6.06776711
_cell_length_c   6.07010641
_cell_angle_alpha   104.32912461
_cell_angle_beta   104.35302876
_cell_angle_gamma   104.34639790
_symmetry_Int_Tables_number   1
_chemical_formula_structural   Nd(Fe2B)6
_chemical_formula_sum   'Nd1 Fe12 B6'
_cell_volume   198.21187184
_cell_formula_units_Z   1
loop_
 _symmetry_equiv_pos_site_id
 _symmetry_equiv_pos_as_xyz
  1  'x, y, z'
loop_
 _atom_site_type_symbol
 _atom_site_label
 _atom_site_symmetry_multiplicity
 _atom_site_fract_x
 _atom_site_fract_y
 _atom_site_fract_z
 _atom_site_occupancy
  Nd  Nd0  1  0.000142  0.000069  0.000161  1
  Fe  Fe1  1  0.130865  0.869078  0.499923  1
  Fe  Fe2  1  0.187937  0.456038  0.456028  1
  Fe  Fe3  1  0.456016  0.455924  0.188231  1
  Fe  Fe4  1  0.455938  0.188070  0.455987  1
  Fe  Fe5  1  0.500040  0.130999  0.869122  1
  Fe  Fe6  1  0.869080  0.500018  0.130832  1
  Fe  Fe7  1  0.544003  0.811940  0.544049  1
  Fe  Fe8  1  0.869163  0.130856  0.500104  1
  Fe  Fe9  1  0.499946  0.869025  0.130826  1
  Fe  Fe10  1  0.130872  0.499928  0.869220  1
  Fe  Fe11  1  0.544045  0.544045  0.811773  1
  Fe  Fe12  1  0.812070  0.544038  0.543923  1
  B  B13  1  0.230663  0.230761  0.684800  1
  B  B14  1  0.769274  0.314920  0.769122  1
  B  B15  1  0.315001  0.769271  0.769355  1
  B  B16  1  0.230820  0.685097  0.230749  1
  B  B17  1  0.769219  0.769344  0.315022  1
  B  B18  1  0.684907  0.230578  0.230774  1
