# generated using pymatgen
data_Ce6Y26O51
_symmetry_space_group_name_H-M   'P 1'
_cell_length_a   9.32005483
_cell_length_b   9.36940964
_cell_length_c   18.66304016
_cell_angle_alpha   109.46640678
_cell_angle_beta   109.28632527
_cell_angle_gamma   109.58734375
_symmetry_Int_Tables_number   1
_chemical_formula_structural   Ce6Y26O51
_chemical_formula_sum   'Ce6 Y26 O51'
_cell_volume   1255.69075483
_cell_formula_units_Z   1
loop_
 _symmetry_equiv_pos_site_id
 _symmetry_equiv_pos_as_xyz
  1  'x, y, z'
loop_
 _atom_site_type_symbol
 _atom_site_label
 _atom_site_symmetry_multiplicity
 _atom_site_fract_x
 _atom_site_fract_y
 _atom_site_fract_z
 _atom_site_occupancy
  Ce  Ce0  1  0.248862  0.971994  0.627893  1
  Ce  Ce1  1  0.712829  0.473174  0.612780  1
  Ce  Ce2  1  0.786153  0.031887  0.874202  1
  Ce  Ce3  1  0.972587  0.244941  0.610760  1
  Ce  Ce4  1  0.775602  0.026146  0.372712  1
  Ce  Ce5  1  0.969954  0.248472  0.111244  1
  O  O6  1  0.021223  0.487577  0.880171  1
  O  O7  1  0.246933  0.968141  0.753886  1
  O  O8  1  0.261048  0.767844  0.865598  1
  O  O9  1  0.238347  0.277192  0.874102  1
  O  O10  1  0.010995  0.039882  0.636409  1
  O  O11  1  0.225838  0.454806  0.732201  1
  O  O12  1  0.247055  0.712634  0.610997  1
  O  O13  1  0.022279  0.487166  0.379323  1
  O  O14  1  0.028375  0.265418  0.502036  1
  O  O15  1  0.500098  0.001529  0.636923  1
  O  O16  1  0.733544  0.996327  0.980555  1
  O  O17  1  0.238906  0.969440  0.256924  1
  O  O18  1  0.262836  0.769600  0.367908  1
  O  O19  1  0.532324  0.778350  0.769465  1
  O  O20  1  0.491704  0.213156  0.980360  1
  O  O21  1  0.531371  0.553055  0.879034  1
  O  O22  1  0.234139  0.275474  0.371525  1
  O  O23  1  0.456619  0.470790  0.610374  1
  O  O24  1  0.491697  0.738551  0.509237  1
  O  O25  1  0.463684  0.251850  0.737963  1
  O  O26  1  0.010437  0.042097  0.136415  1
  O  O27  1  0.225913  0.451994  0.230834  1
  O  O28  1  0.252581  0.012786  0.515909  1
  O  O29  1  0.263167  0.737712  0.115209  1
  O  O30  1  0.033574  0.267653  0.004224  1
  O  O31  1  0.719046  0.234485  0.874316  1
  O  O32  1  0.972334  0.749401  0.995621  1
  O  O33  1  0.732390  0.992908  0.481236  1
  O  O34  1  0.765990  0.538790  0.761329  1
  O  O35  1  0.996071  0.959260  0.866705  1
  O  O36  1  0.529947  0.769166  0.269797  1
  O  O37  1  0.490784  0.213721  0.483429  1
  O  O38  1  0.532941  0.538367  0.374627  1
  O  O39  1  0.776685  0.749250  0.644372  1
  O  O40  1  0.726199  0.497700  0.500797  1
  O  O41  1  0.454553  0.468146  0.109966  1
  O  O42  1  0.487825  0.755530  0.016393  1
  O  O43  1  0.756774  0.242744  0.634378  1
  O  O44  1  0.471748  0.232334  0.230858  1
  O  O45  1  0.794252  0.047834  0.758325  1
  O  O46  1  0.275868  0.010609  0.023685  1
  O  O47  1  0.978366  0.746440  0.496413  1
  O  O48  1  0.720098  0.235853  0.375876  1
  O  O49  1  0.978187  0.505953  0.628028  1
  O  O50  1  0.769017  0.541080  0.262565  1
  O  O51  1  0.984172  0.960585  0.363155  1
  O  O52  1  0.776244  0.746100  0.144090  1
  O  O53  1  0.730399  0.500140  0.999503  1
  O  O54  1  0.740398  0.225027  0.133651  1
  O  O55  1  0.760257  0.033603  0.246058  1
  O  O56  1  0.982000  0.505731  0.128966  1
  Y  Y57  1  0.016896  0.007216  0.754493  1
  Y  Y58  1  0.029774  0.742551  0.889061  1
  Y  Y59  1  0.970626  0.500547  0.498502  1
  Y  Y60  1  0.028345  0.745480  0.386853  1
  Y  Y61  1  0.277677  0.532868  0.876727  1
  Y  Y62  1  0.253827  0.214089  0.984811  1
  Y  Y63  1  0.251663  0.719228  0.735796  1
  Y  Y64  1  0.491214  0.284196  0.872959  1
  Y  Y65  1  0.223871  0.969165  0.127689  1
  Y  Y66  1  0.971928  0.504429  0.998426  1
  Y  Y67  1  0.005985  0.004077  0.251961  1
  Y  Y68  1  0.504384  0.508645  0.749347  1
  Y  Y69  1  0.248100  0.220461  0.482504  1
  Y  Y70  1  0.251808  0.724147  0.236787  1
  Y  Y71  1  0.281580  0.532026  0.374287  1
  Y  Y72  1  0.530891  0.774594  0.640693  1
  Y  Y73  1  0.484409  0.272063  0.369447  1
  Y  Y74  1  0.729928  0.265945  0.756417  1
  Y  Y75  1  0.748271  0.753499  0.514729  1
  Y  Y76  1  0.501689  0.494001  0.245672  1
  Y  Y77  1  0.494997  0.993170  0.512118  1
  Y  Y78  1  0.527654  0.747825  0.139684  1
  Y  Y79  1  0.713862  0.468960  0.112253  1
  Y  Y80  1  0.749099  0.284413  0.264099  1
  Y  Y81  1  0.747295  0.755267  0.017135  1
  Y  Y82  1  0.495407  0.992742  0.000142  1
