# generated using pymatgen
data_NdNi5
_symmetry_space_group_name_H-M   'P 1'
_cell_length_a   3.94074151
_cell_length_b   4.95738022
_cell_length_c   4.95863272
_cell_angle_alpha   119.99164309
_cell_angle_beta   90.00000000
_cell_angle_gamma   90.00000000
_symmetry_Int_Tables_number   1
_chemical_formula_structural   NdNi5
_chemical_formula_sum   'Nd1 Ni5'
_cell_volume   83.89948927
_cell_formula_units_Z   1
loop_
 _symmetry_equiv_pos_site_id
 _symmetry_equiv_pos_as_xyz
  1  'x, y, z'
loop_
 _atom_site_type_symbol
 _atom_site_label
 _atom_site_symmetry_multiplicity
 _atom_site_fract_x
 _atom_site_fract_y
 _atom_site_fract_z
 _atom_site_occupancy
  Nd  Nd0  1  0.000000  0.999978  0.000000  1
  Ni  Ni1  1  0.000000  0.333276  0.666605  1
  Ni  Ni2  1  0.000000  0.666671  0.333395  1
  Ni  Ni3  1  0.500000  0.499997  0.000000  1
  Ni  Ni4  1  0.500000  0.499992  0.500005  1
  Ni  Ni5  1  0.500000  0.999987  0.499995  1
