# generated using pymatgen
data_Ce3Zn22
_symmetry_space_group_name_H-M   'P 1'
_cell_length_a   8.89562914
_cell_length_b   8.89562914
_cell_length_c   12.33109161
_cell_angle_alpha   111.14314095
_cell_angle_beta   111.14314095
_cell_angle_gamma   90.00000000
_symmetry_Int_Tables_number   1
_chemical_formula_structural   Ce3Zn22
_chemical_formula_sum   'Ce6 Zn44'
_cell_volume   839.28553668
_cell_formula_units_Z   2
loop_
 _symmetry_equiv_pos_site_id
 _symmetry_equiv_pos_as_xyz
  1  'x, y, z'
loop_
 _atom_site_type_symbol
 _atom_site_label
 _atom_site_symmetry_multiplicity
 _atom_site_fract_x
 _atom_site_fract_y
 _atom_site_fract_z
 _atom_site_occupancy
  Ce  Ce0  1  0.496142  0.746142  0.992285  1
  Ce  Ce1  1  0.746142  0.496142  0.492285  1
  Ce  Ce2  1  0.503858  0.253858  0.007715  1
  Ce  Ce3  1  0.253858  0.503858  0.507715  1
  Ce  Ce4  1  0.125000  0.875000  0.250000  1
  Ce  Ce5  1  0.875000  0.125000  0.750000  1
  Zn  Zn6  1  0.319022  0.042524  0.122206  1
  Zn  Zn7  1  0.319022  0.579682  0.122206  1
  Zn  Zn8  1  0.042524  0.319022  0.622206  1
  Zn  Zn9  1  0.042524  0.803184  0.622206  1
  Zn  Zn10  1  0.803184  0.042524  0.122206  1
  Zn  Zn11  1  0.803184  0.579682  0.122206  1
  Zn  Zn12  1  0.579682  0.319022  0.622206  1
  Zn  Zn13  1  0.579682  0.803184  0.622206  1
  Zn  Zn14  1  0.680978  0.957476  0.877794  1
  Zn  Zn15  1  0.680978  0.420318  0.877794  1
  Zn  Zn16  1  0.957476  0.680978  0.377794  1
  Zn  Zn17  1  0.957476  0.196816  0.377794  1
  Zn  Zn18  1  0.196816  0.957476  0.877794  1
  Zn  Zn19  1  0.196816  0.420318  0.877794  1
  Zn  Zn20  1  0.420318  0.680978  0.377794  1
  Zn  Zn21  1  0.420318  0.196816  0.377794  1
  Zn  Zn22  1  0.150695  0.623239  0.746478  1
  Zn  Zn23  1  0.623239  0.150695  0.246478  1
  Zn  Zn24  1  0.623239  0.595783  0.246478  1
  Zn  Zn25  1  0.595783  0.623239  0.746478  1
  Zn  Zn26  1  0.849305  0.376761  0.253522  1
  Zn  Zn27  1  0.376761  0.849305  0.753522  1
  Zn  Zn28  1  0.376761  0.404217  0.753522  1
  Zn  Zn29  1  0.404217  0.376761  0.253522  1
  Zn  Zn30  1  0.485273  0.882860  0.265719  1
  Zn  Zn31  1  0.882860  0.485273  0.765719  1
  Zn  Zn32  1  0.882860  0.780447  0.765719  1
  Zn  Zn33  1  0.780447  0.882860  0.265719  1
  Zn  Zn34  1  0.514727  0.117140  0.734281  1
  Zn  Zn35  1  0.117140  0.514727  0.234281  1
  Zn  Zn36  1  0.117140  0.219553  0.234281  1
  Zn  Zn37  1  0.219553  0.117140  0.734281  1
  Zn  Zn38  1  0.835435  0.737259  0.974518  1
  Zn  Zn39  1  0.737259  0.835435  0.474518  1
  Zn  Zn40  1  0.737259  0.139083  0.474518  1
  Zn  Zn41  1  0.139083  0.737259  0.974518  1
  Zn  Zn42  1  0.164565  0.262741  0.025482  1
  Zn  Zn43  1  0.262741  0.164565  0.525482  1
  Zn  Zn44  1  0.262741  0.860917  0.525482  1
  Zn  Zn45  1  0.860917  0.262741  0.025482  1
  Zn  Zn46  1  0.500000  0.000000  0.500000  1
  Zn  Zn47  1  0.000000  0.500000  0.000000  1
  Zn  Zn48  1  0.000000  0.000000  0.000000  1
  Zn  Zn49  1  0.000000  0.000000  0.500000  1
