# generated using pymatgen
data_NdZr9O20
_symmetry_space_group_name_H-M   'P 1'
_cell_length_a   18.41642495
_cell_length_b   8.23491953
_cell_length_c   6.51705360
_cell_angle_alpha   59.41141605
_cell_angle_beta   55.39137132
_cell_angle_gamma   26.52672490
_symmetry_Int_Tables_number   1
_chemical_formula_structural   NdZr9O20
_chemical_formula_sum   'Nd1 Zr9 O20'
_cell_volume   363.30833742
_cell_formula_units_Z   1
loop_
 _symmetry_equiv_pos_site_id
 _symmetry_equiv_pos_as_xyz
  1  'x, y, z'
loop_
 _atom_site_type_symbol
 _atom_site_label
 _atom_site_symmetry_multiplicity
 _atom_site_fract_x
 _atom_site_fract_y
 _atom_site_fract_z
 _atom_site_occupancy
  Nd  Nd0  1  0.700458  0.250337  0.747199  1
  Zr  Zr1  1  0.103246  0.242887  0.742375  1
  Zr  Zr2  1  0.099417  0.755862  0.248161  1
  Zr  Zr3  1  0.299098  0.254355  0.742997  1
  Zr  Zr4  1  0.299348  0.751122  0.254339  1
  Zr  Zr5  1  0.494757  0.252907  0.760861  1
  Zr  Zr6  1  0.496375  0.752556  0.252261  1
  Zr  Zr7  1  0.706310  0.736818  0.247334  1
  Zr  Zr8  1  0.899044  0.252442  0.754263  1
  Zr  Zr9  1  0.897593  0.753184  0.249411  1
  O  O10  1  0.139572  0.248791  0.057971  1
  O  O11  1  0.036302  0.254481  0.551652  1
  O  O12  1  0.340330  0.257204  0.064860  1
  O  O13  1  0.240064  0.242960  0.560349  1
  O  O14  1  0.065787  0.741493  0.936883  1
  O  O15  1  0.174291  0.722414  0.439508  1
  O  O16  1  0.534722  0.251882  0.064087  1
  O  O17  1  0.440004  0.246362  0.563680  1
  O  O18  1  0.255340  0.762469  0.947204  1
  O  O19  1  0.350101  0.768587  0.452492  1
  O  O20  1  0.743730  0.249636  0.051875  1
  O  O21  1  0.630578  0.258360  0.534235  1
  O  O22  1  0.442245  0.792190  0.969870  1
  O  O23  1  0.557760  0.761436  0.438460  1
  O  O24  1  0.937551  0.242836  0.046732  1
  O  O25  1  0.855195  0.246918  0.525258  1
  O  O26  1  0.662519  0.749972  0.941520  1
  O  O27  1  0.757294  0.756980  0.448767  1
  O  O28  1  0.873688  0.704476  0.968770  1
  O  O29  1  0.967278  0.738082  0.436627  1
