# generated using pymatgen
data_NdZr9O20
_symmetry_space_group_name_H-M   'P 1'
_cell_length_a   7.34879179
_cell_length_b   18.38402762
_cell_length_c   9.72654791
_cell_angle_alpha   19.08127672
_cell_angle_beta   55.49717016
_cell_angle_gamma   59.97372627
_symmetry_Int_Tables_number   1
_chemical_formula_structural   NdZr9O20
_chemical_formula_sum   'Nd1 Zr9 O20'
_cell_volume   351.02701599
_cell_formula_units_Z   1
loop_
 _symmetry_equiv_pos_site_id
 _symmetry_equiv_pos_as_xyz
  1  'x, y, z'
loop_
 _atom_site_type_symbol
 _atom_site_label
 _atom_site_symmetry_multiplicity
 _atom_site_fract_x
 _atom_site_fract_y
 _atom_site_fract_z
 _atom_site_occupancy
  Nd  Nd0  1  0.500000  0.800000  0.000000  1
  Zr  Zr1  1  0.998697  0.001497  0.998304  1
  Zr  Zr2  1  0.001340  0.199953  0.999446  1
  Zr  Zr3  1  0.499709  0.001016  0.999674  1
  Zr  Zr4  1  0.998660  0.400047  0.000554  1
  Zr  Zr5  1  0.499506  0.199831  0.000113  1
  Zr  Zr6  1  0.001303  0.598503  0.001696  1
  Zr  Zr7  1  0.500494  0.400169  0.999887  1
  Zr  Zr8  1  0.000000  0.800000  0.000000  1
  Zr  Zr9  1  0.500291  0.598984  0.000326  1
  O  O10  1  0.122095  0.154159  0.243693  1
  O  O11  1  0.121347  0.354453  0.244368  1
  O  O12  1  0.635791  0.169824  0.205436  1
  O  O13  1  0.368672  0.066521  0.731917  1
  O  O14  1  0.124090  0.541740  0.266025  1
  O  O15  1  0.627148  0.353516  0.244091  1
  O  O16  1  0.372852  0.246484  0.755909  1
  O  O17  1  0.102533  0.749631  0.259796  1
  O  O18  1  0.875910  0.058260  0.733975  1
  O  O19  1  0.364209  0.430176  0.794564  1
  O  O20  1  0.124731  0.946179  0.255581  1
  O  O21  1  0.631328  0.533479  0.268083  1
  O  O22  1  0.878653  0.245547  0.755632  1
  O  O23  1  0.371485  0.649818  0.753965  1
  O  O24  1  0.632185  0.747464  0.265352  1
  O  O25  1  0.367815  0.852536  0.734648  1
  O  O26  1  0.628515  0.950182  0.246035  1
  O  O27  1  0.877905  0.445841  0.756307  1
  O  O28  1  0.875269  0.653821  0.744419  1
  O  O29  1  0.897467  0.850369  0.740204  1
