# generated using pymatgen
data_Nd5(FeB)18
_symmetry_space_group_name_H-M   'P 1'
_cell_length_a   7.06666706
_cell_length_b   7.07183587
_cell_length_c   34.70381100
_cell_angle_alpha   90.00000000
_cell_angle_beta   90.00000000
_cell_angle_gamma   90.00000000
_symmetry_Int_Tables_number   1
_chemical_formula_structural   Nd5(FeB)18
_chemical_formula_sum   'Nd20 Fe72 B72'
_cell_volume   1734.29899508
_cell_formula_units_Z   4
loop_
 _symmetry_equiv_pos_site_id
 _symmetry_equiv_pos_as_xyz
  1  'x, y, z'
loop_
 _atom_site_type_symbol
 _atom_site_label
 _atom_site_symmetry_multiplicity
 _atom_site_fract_x
 _atom_site_fract_y
 _atom_site_fract_z
 _atom_site_occupancy
  Nd  Nd0  1  0.250000  0.750000  0.077634  1
  Nd  Nd1  1  0.250000  0.750000  0.776613  1
  Nd  Nd2  1  0.750000  0.250000  0.523773  1
  Nd  Nd3  1  0.250000  0.750000  0.177941  1
  Nd  Nd4  1  0.250000  0.750000  0.577634  1
  Nd  Nd5  1  0.750000  0.250000  0.223387  1
  Nd  Nd6  1  0.750000  0.250000  0.922366  1
  Nd  Nd7  1  0.250000  0.750000  0.276613  1
  Nd  Nd8  1  0.250000  0.750000  0.976227  1
  Nd  Nd9  1  0.750000  0.250000  0.322059  1
  Nd  Nd10  1  0.750000  0.250000  0.723387  1
  Nd  Nd11  1  0.250000  0.750000  0.875517  1
  Nd  Nd12  1  0.250000  0.750000  0.375517  1
  Nd  Nd13  1  0.750000  0.250000  0.023773  1
  Nd  Nd14  1  0.250000  0.750000  0.476227  1
  Nd  Nd15  1  0.250000  0.750000  0.677941  1
  Nd  Nd16  1  0.750000  0.250000  0.124483  1
  Nd  Nd17  1  0.750000  0.250000  0.624483  1
  Nd  Nd18  1  0.750000  0.250000  0.422366  1
  Nd  Nd19  1  0.750000  0.250000  0.822059  1
  Fe  Fe20  1  0.367191  0.125510  0.404537  1
  Fe  Fe21  1  0.117322  0.362160  0.071030  1
  Fe  Fe22  1  0.636050  0.619571  0.763172  1
  Fe  Fe23  1  0.863950  0.619571  0.263172  1
  Fe  Fe24  1  0.861974  0.616959  0.373791  1
  Fe  Fe25  1  0.875916  0.866748  0.207370  1
  Fe  Fe26  1  0.128907  0.371674  0.848612  1
  Fe  Fe27  1  0.863137  0.880716  0.984284  1
  Fe  Fe28  1  0.363950  0.380429  0.236828  1
  Fe  Fe29  1  0.378673  0.364741  0.460233  1
  Fe  Fe30  1  0.632809  0.874490  0.595463  1
  Fe  Fe31  1  0.367191  0.374490  0.904537  1
  Fe  Fe32  1  0.382186  0.137577  0.181432  1
  Fe  Fe33  1  0.132809  0.374490  0.404537  1
  Fe  Fe34  1  0.878673  0.635259  0.039767  1
  Fe  Fe35  1  0.382678  0.362160  0.571030  1
  Fe  Fe36  1  0.861974  0.883041  0.873791  1
  Fe  Fe37  1  0.617322  0.862160  0.928970  1
  Fe  Fe38  1  0.875916  0.633252  0.707370  1
  Fe  Fe39  1  0.863137  0.619284  0.484284  1
  Fe  Fe40  1  0.636050  0.880429  0.263172  1
  Fe  Fe41  1  0.375916  0.133252  0.292630  1
  Fe  Fe42  1  0.361974  0.116959  0.626209  1
  Fe  Fe43  1  0.382186  0.362423  0.681432  1
  Fe  Fe44  1  0.617814  0.862423  0.818568  1
  Fe  Fe45  1  0.363137  0.119284  0.515716  1
  Fe  Fe46  1  0.128907  0.128326  0.348612  1
  Fe  Fe47  1  0.363137  0.380716  0.015716  1
  Fe  Fe48  1  0.617322  0.637840  0.428970  1
  Fe  Fe49  1  0.624084  0.633252  0.207370  1
  Fe  Fe50  1  0.363950  0.119571  0.736828  1
  Fe  Fe51  1  0.624084  0.866748  0.707370  1
  Fe  Fe52  1  0.636863  0.880716  0.484284  1
  Fe  Fe53  1  0.863950  0.880429  0.763172  1
  Fe  Fe54  1  0.882678  0.637840  0.928970  1
  Fe  Fe55  1  0.628907  0.628326  0.651388  1
  Fe  Fe56  1  0.378673  0.135259  0.960233  1
  Fe  Fe57  1  0.632809  0.625510  0.095463  1
  Fe  Fe58  1  0.636863  0.619284  0.984284  1
  Fe  Fe59  1  0.878673  0.864741  0.539767  1
  Fe  Fe60  1  0.136050  0.380429  0.736828  1
  Fe  Fe61  1  0.882186  0.637577  0.818568  1
  Fe  Fe62  1  0.628907  0.871674  0.151388  1
  Fe  Fe63  1  0.121327  0.364741  0.960233  1
  Fe  Fe64  1  0.621327  0.635259  0.539767  1
  Fe  Fe65  1  0.638026  0.616959  0.873791  1
  Fe  Fe66  1  0.124084  0.366748  0.292630  1
  Fe  Fe67  1  0.117322  0.137840  0.571030  1
  Fe  Fe68  1  0.882186  0.862423  0.318568  1
  Fe  Fe69  1  0.121327  0.135259  0.460233  1
  Fe  Fe70  1  0.132809  0.125510  0.904537  1
  Fe  Fe71  1  0.138026  0.383041  0.626209  1
  Fe  Fe72  1  0.117814  0.137577  0.681432  1
  Fe  Fe73  1  0.136050  0.119571  0.236828  1
  Fe  Fe74  1  0.882678  0.862160  0.428970  1
  Fe  Fe75  1  0.617814  0.637577  0.318568  1
  Fe  Fe76  1  0.136863  0.380716  0.515716  1
  Fe  Fe77  1  0.138026  0.116959  0.126209  1
  Fe  Fe78  1  0.136863  0.119284  0.015716  1
  Fe  Fe79  1  0.871093  0.628326  0.151388  1
  Fe  Fe80  1  0.638026  0.883041  0.373791  1
  Fe  Fe81  1  0.867191  0.625510  0.595463  1
  Fe  Fe82  1  0.871093  0.871674  0.651388  1
  Fe  Fe83  1  0.382678  0.137840  0.071030  1
  Fe  Fe84  1  0.361974  0.383041  0.126209  1
  Fe  Fe85  1  0.124084  0.133252  0.792630  1
  Fe  Fe86  1  0.867191  0.874490  0.095463  1
  Fe  Fe87  1  0.371093  0.371674  0.348612  1
  Fe  Fe88  1  0.621327  0.864741  0.039767  1
  Fe  Fe89  1  0.371093  0.128326  0.848612  1
  Fe  Fe90  1  0.375916  0.366748  0.792630  1
  Fe  Fe91  1  0.117814  0.362423  0.181432  1
  B  B92  1  0.443976  0.082278  0.460380  1
  B  B93  1  0.417126  0.449769  0.626485  1
  B  B94  1  0.917126  0.949769  0.373515  1
  B  B95  1  0.920864  0.936979  0.595284  1
  B  B96  1  0.568042  0.925384  0.651070  1
  B  B97  1  0.431958  0.425384  0.848930  1
  B  B98  1  0.549366  0.583582  0.928871  1
  B  B99  1  0.049366  0.416418  0.571129  1
  B  B100  1  0.556024  0.582278  0.039620  1
  B  B101  1  0.079136  0.436979  0.904716  1
  B  B102  1  0.082717  0.447259  0.015929  1
  B  B103  1  0.068042  0.074616  0.848930  1
  B  B104  1  0.582874  0.949769  0.873515  1
  B  B105  1  0.431122  0.074788  0.792935  1
  B  B106  1  0.056024  0.417722  0.460380  1
  B  B107  1  0.931958  0.925384  0.151070  1
  B  B108  1  0.068878  0.074788  0.292935  1
  B  B109  1  0.945033  0.581428  0.318392  1
  B  B110  1  0.568878  0.925212  0.207065  1
  B  B111  1  0.568878  0.574788  0.707065  1
  B  B112  1  0.420864  0.436979  0.404716  1
  B  B113  1  0.917126  0.550231  0.873515  1
  B  B114  1  0.082874  0.449769  0.126485  1
  B  B115  1  0.443976  0.417722  0.960380  1
  B  B116  1  0.921224  0.559200  0.762698  1
  B  B117  1  0.549366  0.916418  0.428871  1
  B  B118  1  0.578776  0.559200  0.262698  1
  B  B119  1  0.445033  0.418572  0.181608  1
  B  B120  1  0.079136  0.063021  0.404716  1
  B  B121  1  0.917283  0.947259  0.484071  1
  B  B122  1  0.450634  0.083582  0.571129  1
  B  B123  1  0.917283  0.552741  0.984071  1
  B  B124  1  0.431958  0.074616  0.348930  1
  B  B125  1  0.417126  0.050231  0.126485  1
  B  B126  1  0.417283  0.052741  0.015929  1
  B  B127  1  0.579136  0.563021  0.595284  1
  B  B128  1  0.921224  0.940800  0.262698  1
  B  B129  1  0.931122  0.574788  0.207065  1
  B  B130  1  0.068878  0.425212  0.792935  1
  B  B131  1  0.056024  0.082278  0.960380  1
  B  B132  1  0.445033  0.081428  0.681608  1
  B  B133  1  0.568042  0.574616  0.151070  1
  B  B134  1  0.554967  0.581428  0.818392  1
  B  B135  1  0.950634  0.583582  0.428871  1
  B  B136  1  0.078776  0.440800  0.237302  1
  B  B137  1  0.943976  0.917722  0.039620  1
  B  B138  1  0.420864  0.063021  0.904716  1
  B  B139  1  0.082717  0.052741  0.515929  1
  B  B140  1  0.945033  0.918572  0.818392  1
  B  B141  1  0.417283  0.447259  0.515929  1
  B  B142  1  0.582717  0.552741  0.484071  1
  B  B143  1  0.049366  0.083582  0.071129  1
  B  B144  1  0.082874  0.050231  0.626485  1
  B  B145  1  0.943976  0.582278  0.539620  1
  B  B146  1  0.931122  0.925212  0.707065  1
  B  B147  1  0.431122  0.425212  0.292935  1
  B  B148  1  0.078776  0.059200  0.737302  1
  B  B149  1  0.582717  0.947259  0.984071  1
  B  B150  1  0.054967  0.418572  0.681608  1
  B  B151  1  0.579136  0.936979  0.095284  1
  B  B152  1  0.421224  0.440800  0.737302  1
  B  B153  1  0.931958  0.574616  0.651070  1
  B  B154  1  0.068042  0.425384  0.348930  1
  B  B155  1  0.920864  0.563021  0.095284  1
  B  B156  1  0.582874  0.550231  0.373515  1
  B  B157  1  0.054967  0.081428  0.181608  1
  B  B158  1  0.450634  0.416418  0.071129  1
  B  B159  1  0.421224  0.059200  0.237302  1
  B  B160  1  0.556024  0.917722  0.539620  1
  B  B161  1  0.554967  0.918572  0.318392  1
  B  B162  1  0.950634  0.916418  0.928871  1
  B  B163  1  0.578776  0.940800  0.762698  1
