# generated using pymatgen
data_Nd5Ir3
_symmetry_space_group_name_H-M   'P 1'
_cell_length_a   6.60495403
_cell_length_b   11.26233633
_cell_length_c   11.26233633
_cell_angle_alpha   90.00000000
_cell_angle_beta   90.00000000
_cell_angle_gamma   90.00000000
_symmetry_Int_Tables_number   1
_chemical_formula_structural   Nd5Ir3
_chemical_formula_sum   'Nd20 Ir12'
_cell_volume   837.77381968
_cell_formula_units_Z   4
loop_
 _symmetry_equiv_pos_site_id
 _symmetry_equiv_pos_as_xyz
  1  'x, y, z'
loop_
 _atom_site_type_symbol
 _atom_site_label
 _atom_site_symmetry_multiplicity
 _atom_site_fract_x
 _atom_site_fract_y
 _atom_site_fract_z
 _atom_site_occupancy
  Nd  Nd0  1  0.117613  0.042423  0.339974  1
  Nd  Nd1  1  0.117613  0.160026  0.042423  1
  Nd  Nd2  1  0.117613  0.339974  0.457577  1
  Nd  Nd3  1  0.117613  0.457577  0.160026  1
  Nd  Nd4  1  0.382387  0.542423  0.660026  1
  Nd  Nd5  1  0.382387  0.957577  0.839974  1
  Nd  Nd6  1  0.382387  0.839974  0.542423  1
  Nd  Nd7  1  0.382387  0.660026  0.957577  1
  Nd  Nd8  1  0.882387  0.957577  0.660026  1
  Nd  Nd9  1  0.882387  0.839974  0.957577  1
  Nd  Nd10  1  0.882387  0.660026  0.542423  1
  Nd  Nd11  1  0.882387  0.542423  0.839974  1
  Nd  Nd12  1  0.617613  0.457577  0.339974  1
  Nd  Nd13  1  0.617613  0.042423  0.160026  1
  Nd  Nd14  1  0.617613  0.160026  0.457577  1
  Nd  Nd15  1  0.617613  0.339974  0.042423  1
  Nd  Nd16  1  0.000000  0.750000  0.250000  1
  Nd  Nd17  1  0.000000  0.250000  0.750000  1
  Nd  Nd18  1  0.500000  0.250000  0.750000  1
  Nd  Nd19  1  0.500000  0.750000  0.250000  1
  Ir  Ir20  1  0.250000  0.596448  0.403552  1
  Ir  Ir21  1  0.250000  0.096448  0.596448  1
  Ir  Ir22  1  0.250000  0.403552  0.903552  1
  Ir  Ir23  1  0.250000  0.903552  0.096448  1
  Ir  Ir24  1  0.750000  0.403552  0.596448  1
  Ir  Ir25  1  0.750000  0.903552  0.403552  1
  Ir  Ir26  1  0.750000  0.596448  0.096448  1
  Ir  Ir27  1  0.750000  0.096448  0.903552  1
  Ir  Ir28  1  0.379962  0.250000  0.250000  1
  Ir  Ir29  1  0.120038  0.750000  0.750000  1
  Ir  Ir30  1  0.620038  0.750000  0.750000  1
  Ir  Ir31  1  0.879962  0.250000  0.250000  1
