# generated using pymatgen
data_Nd5Mo3O16
_symmetry_space_group_name_H-M   'P 1'
_cell_length_a   11.13778323
_cell_length_b   11.13778323
_cell_length_c   11.13778323
_cell_angle_alpha   90.00000000
_cell_angle_beta   90.00000000
_cell_angle_gamma   90.00000000
_symmetry_Int_Tables_number   1
_chemical_formula_structural   Nd5Mo3O16
_chemical_formula_sum   'Nd20 Mo12 O64'
_cell_volume   1381.64440741
_cell_formula_units_Z   4
loop_
 _symmetry_equiv_pos_site_id
 _symmetry_equiv_pos_as_xyz
  1  'x, y, z'
loop_
 _atom_site_type_symbol
 _atom_site_label
 _atom_site_symmetry_multiplicity
 _atom_site_fract_x
 _atom_site_fract_y
 _atom_site_fract_z
 _atom_site_occupancy
  Nd  Nd0  1  0.989777  0.750000  0.750000  1
  Nd  Nd1  1  0.750000  0.510223  0.750000  1
  Nd  Nd2  1  0.500000  0.500000  0.000000  1
  Nd  Nd3  1  0.010223  0.250000  0.250000  1
  Nd  Nd4  1  0.000000  0.500000  0.500000  1
  Nd  Nd5  1  0.500000  0.000000  0.500000  1
  Nd  Nd6  1  0.250000  0.250000  0.489777  1
  Nd  Nd7  1  0.510223  0.750000  0.750000  1
  Nd  Nd8  1  0.750000  0.750000  0.989777  1
  Nd  Nd9  1  0.000000  0.000000  0.000000  1
  Nd  Nd10  1  0.750000  0.750000  0.510223  1
  Nd  Nd11  1  0.489777  0.250000  0.250000  1
  Nd  Nd12  1  0.250000  0.010223  0.250000  1
  Nd  Nd13  1  0.500000  0.000000  0.000000  1
  Nd  Nd14  1  0.000000  0.500000  0.000000  1
  Nd  Nd15  1  0.250000  0.489777  0.250000  1
  Nd  Nd16  1  0.250000  0.250000  0.010223  1
  Nd  Nd17  1  0.500000  0.500000  0.500000  1
  Nd  Nd18  1  0.000000  0.000000  0.500000  1
  Nd  Nd19  1  0.750000  0.989777  0.750000  1
  Mo  Mo20  1  0.750000  0.500000  0.250000  1
  Mo  Mo21  1  0.250000  0.750000  0.500000  1
  Mo  Mo22  1  0.500000  0.750000  0.250000  1
  Mo  Mo23  1  0.000000  0.750000  0.250000  1
  Mo  Mo24  1  0.750000  0.000000  0.250000  1
  Mo  Mo25  1  0.750000  0.250000  0.000000  1
  Mo  Mo26  1  0.250000  0.750000  0.000000  1
  Mo  Mo27  1  0.750000  0.250000  0.500000  1
  Mo  Mo28  1  0.000000  0.250000  0.750000  1
  Mo  Mo29  1  0.250000  0.000000  0.750000  1
  Mo  Mo30  1  0.250000  0.500000  0.750000  1
  Mo  Mo31  1  0.500000  0.250000  0.750000  1
  O  O32  1  0.879003  0.879003  0.620997  1
  O  O33  1  0.366359  0.584361  0.830257  1
  O  O34  1  0.415639  0.866359  0.169743  1
  O  O35  1  0.915639  0.133641  0.669743  1
  O  O36  1  0.879003  0.620997  0.879003  1
  O  O37  1  0.120997  0.120997  0.120997  1
  O  O38  1  0.866359  0.330257  0.084361  1
  O  O39  1  0.669743  0.584361  0.366359  1
  O  O40  1  0.633641  0.169743  0.084361  1
  O  O41  1  0.669743  0.366359  0.915639  1
  O  O42  1  0.620997  0.879003  0.620997  1
  O  O43  1  0.379003  0.379003  0.120997  1
  O  O44  1  0.366359  0.915639  0.669743  1
  O  O45  1  0.379003  0.120997  0.120997  1
  O  O46  1  0.330257  0.415639  0.633641  1
  O  O47  1  0.133641  0.669743  0.915639  1
  O  O48  1  0.633641  0.415639  0.169743  1
  O  O49  1  0.830257  0.133641  0.915639  1
  O  O50  1  0.620997  0.879003  0.879003  1
  O  O51  1  0.915639  0.830257  0.133641  1
  O  O52  1  0.379003  0.379003  0.379003  1
  O  O53  1  0.584361  0.133641  0.830257  1
  O  O54  1  0.415639  0.330257  0.866359  1
  O  O55  1  0.830257  0.366359  0.584361  1
  O  O56  1  0.330257  0.866359  0.415639  1
  O  O57  1  0.879003  0.620997  0.620997  1
  O  O58  1  0.915639  0.366359  0.830257  1
  O  O59  1  0.366359  0.669743  0.584361  1
  O  O60  1  0.120997  0.379003  0.120997  1
  O  O61  1  0.879003  0.879003  0.879003  1
  O  O62  1  0.669743  0.915639  0.133641  1
  O  O63  1  0.084361  0.330257  0.633641  1
  O  O64  1  0.415639  0.169743  0.633641  1
  O  O65  1  0.633641  0.084361  0.330257  1
  O  O66  1  0.133641  0.915639  0.830257  1
  O  O67  1  0.866359  0.415639  0.330257  1
  O  O68  1  0.584361  0.669743  0.133641  1
  O  O69  1  0.415639  0.633641  0.330257  1
  O  O70  1  0.669743  0.133641  0.584361  1
  O  O71  1  0.915639  0.669743  0.366359  1
  O  O72  1  0.379003  0.120997  0.379003  1
  O  O73  1  0.620997  0.620997  0.879003  1
  O  O74  1  0.169743  0.084361  0.633641  1
  O  O75  1  0.084361  0.169743  0.866359  1
  O  O76  1  0.330257  0.084361  0.866359  1
  O  O77  1  0.120997  0.379003  0.379003  1
  O  O78  1  0.169743  0.633641  0.415639  1
  O  O79  1  0.866359  0.084361  0.169743  1
  O  O80  1  0.084361  0.633641  0.169743  1
  O  O81  1  0.366359  0.830257  0.915639  1
  O  O82  1  0.830257  0.584361  0.133641  1
  O  O83  1  0.633641  0.330257  0.415639  1
  O  O84  1  0.584361  0.366359  0.669743  1
  O  O85  1  0.169743  0.415639  0.866359  1
  O  O86  1  0.584361  0.830257  0.366359  1
  O  O87  1  0.330257  0.633641  0.084361  1
  O  O88  1  0.120997  0.120997  0.379003  1
  O  O89  1  0.133641  0.584361  0.669743  1
  O  O90  1  0.620997  0.620997  0.620997  1
  O  O91  1  0.084361  0.866359  0.330257  1
  O  O92  1  0.866359  0.169743  0.415639  1
  O  O93  1  0.133641  0.830257  0.584361  1
  O  O94  1  0.830257  0.915639  0.366359  1
  O  O95  1  0.169743  0.866359  0.084361  1
