# generated using pymatgen
data_Nd5Ti4FeO17
_symmetry_space_group_name_H-M   'P 1'
_cell_length_a   5.50361250
_cell_length_b   7.74454316
_cell_length_c   32.16366403
_cell_angle_alpha   96.96938473
_cell_angle_beta   90.00000000
_cell_angle_gamma   90.00000000
_symmetry_Int_Tables_number   1
_chemical_formula_structural   Nd5Ti4FeO17
_chemical_formula_sum   'Nd20 Ti16 Fe4 O68'
_cell_volume   1360.78122880
_cell_formula_units_Z   4
loop_
 _symmetry_equiv_pos_site_id
 _symmetry_equiv_pos_as_xyz
  1  'x, y, z'
loop_
 _atom_site_type_symbol
 _atom_site_label
 _atom_site_symmetry_multiplicity
 _atom_site_fract_x
 _atom_site_fract_y
 _atom_site_fract_z
 _atom_site_occupancy
  Nd  Nd0  1  0.042003  0.644596  0.299245  1
  Nd  Nd1  1  1.001269  0.299526  0.096584  1
  Nd  Nd2  1  0.501269  0.700474  0.403416  1
  Nd  Nd3  1  0.479043  0.788078  0.578984  1
  Nd  Nd4  1  0.520957  0.211922  0.421016  1
  Nd  Nd5  1  0.542003  0.355404  0.200755  1
  Nd  Nd6  1  0.386538  0.142620  0.778446  1
  Nd  Nd7  1  0.498731  0.299526  0.596584  1
  Nd  Nd8  1  0.979043  0.211922  0.921016  1
  Nd  Nd9  1  0.886538  0.857380  0.721554  1
  Nd  Nd10  1  0.457997  0.644596  0.799245  1
  Nd  Nd11  1  0.990065  0.255417  0.508611  1
  Nd  Nd12  1  0.490065  0.744583  0.991389  1
  Nd  Nd13  1  0.957997  0.355404  0.700755  1
  Nd  Nd14  1  0.009935  0.744583  0.491389  1
  Nd  Nd15  1  0.509935  0.255417  0.008611  1
  Nd  Nd16  1  0.020957  0.788078  0.078984  1
  Nd  Nd17  1  0.113462  0.142620  0.278446  1
  Nd  Nd18  1  0.613462  0.857380  0.221554  1
  Nd  Nd19  1  -0.001269  0.700474  0.903416  1
  Ti  Ti20  1  0.041640  0.076079  0.176165  1
  Ti  Ti21  1  0.014288  0.453119  0.405458  1
  Ti  Ti22  1  0.541640  0.923921  0.323835  1
  Ti  Ti23  1  0.016899  0.954957  0.406572  1
  Ti  Ti24  1  0.483101  0.954957  0.906572  1
  Ti  Ti25  1  0.985712  0.546881  0.594542  1
  Ti  Ti26  1  0.552499  0.407400  0.321106  1
  Ti  Ti27  1  0.983101  0.045043  0.593428  1
  Ti  Ti28  1  0.516899  0.045043  0.093428  1
  Ti  Ti29  1  0.958360  0.923921  0.823835  1
  Ti  Ti30  1  0.458360  0.076079  0.676165  1
  Ti  Ti31  1  0.514288  0.546881  0.094542  1
  Ti  Ti32  1  0.052499  0.592600  0.178894  1
  Ti  Ti33  1  0.447501  0.592600  0.678894  1
  Ti  Ti34  1  0.947501  0.407400  0.821106  1
  Ti  Ti35  1  0.485712  0.453119  0.905458  1
  Fe  Fe36  1  0.500000  0.500000  0.500000  1
  Fe  Fe37  1  0.000000  0.000000  0.000000  1
  Fe  Fe38  1  0.000000  0.500000  0.000000  1
  Fe  Fe39  1  0.500000  0.000000  0.500000  1
  O  O40  1  0.300442  0.033809  0.619481  1
  O  O41  1  0.839462  0.367922  0.296438  1
  O  O42  1  0.206447  0.970435  0.536545  1
  O  O43  1  0.293290  0.565123  0.036186  1
  O  O44  1  0.785211  0.485191  0.053039  1
  O  O45  1  0.696482  0.415421  0.381192  1
  O  O46  1  0.712746  0.130124  0.138048  1
  O  O47  1  0.113104  0.336930  0.170612  1
  O  O48  1  0.425862  0.291051  0.082426  1
  O  O49  1  0.803518  0.415421  0.881192  1
  O  O50  1  0.287254  0.869876  0.861952  1
  O  O51  1  0.793553  0.029565  0.463455  1
  O  O52  1  0.715079  0.068062  0.552605  1
  O  O53  1  0.187905  0.080991  0.711160  1
  O  O54  1  0.199558  0.033809  0.119481  1
  O  O55  1  0.588069  0.752003  0.503692  1
  O  O56  1  0.793290  0.434877  0.463814  1
  O  O57  1  0.784921  0.068062  0.052605  1
  O  O58  1  0.074138  0.291051  0.582426  1
  O  O59  1  0.660538  0.367922  0.796438  1
  O  O60  1  0.916820  0.795740  0.591742  1
  O  O61  1  0.687905  0.919009  0.788840  1
  O  O62  1  0.284921  0.931938  0.447395  1
  O  O63  1  0.312095  0.080991  0.211160  1
  O  O64  1  0.812095  0.919009  0.288840  1
  O  O65  1  0.083180  0.204260  0.408258  1
  O  O66  1  0.208236  0.493666  0.360883  1
  O  O67  1  0.174557  0.865815  0.779484  1
  O  O68  1  0.293553  0.970435  0.036545  1
  O  O69  1  0.303518  0.584579  0.618808  1
  O  O70  1  0.706447  0.029565  0.963455  1
  O  O71  1  0.791764  0.506334  0.639117  1
  O  O72  1  0.800442  0.966191  0.880519  1
  O  O73  1  0.574138  0.708949  0.917574  1
  O  O74  1  0.411931  0.247997  0.496308  1
  O  O75  1  0.088069  0.247997  0.996308  1
  O  O76  1  0.325443  0.865815  0.279484  1
  O  O77  1  0.212746  0.869876  0.361952  1
  O  O78  1  0.049173  0.164881  0.828535  1
  O  O79  1  0.583180  0.795740  0.091742  1
  O  O80  1  0.950827  0.835119  0.171465  1
  O  O81  1  0.655259  0.592485  0.726099  1
  O  O82  1  0.450827  0.164881  0.328535  1
  O  O83  1  0.214789  0.514809  0.946961  1
  O  O84  1  0.215079  0.931938  0.947395  1
  O  O85  1  0.925862  0.708949  0.417574  1
  O  O86  1  0.285211  0.514809  0.446961  1
  O  O87  1  0.386896  0.336930  0.670612  1
  O  O88  1  0.339462  0.632078  0.203562  1
  O  O89  1  0.787254  0.130124  0.638048  1
  O  O90  1  0.206710  0.565123  0.536186  1
  O  O91  1  0.291764  0.493666  0.860883  1
  O  O92  1  0.416820  0.204260  0.908258  1
  O  O93  1  0.706710  0.434877  0.963814  1
  O  O94  1  0.155259  0.407515  0.773901  1
  O  O95  1  0.549173  0.835119  0.671465  1
  O  O96  1  0.613104  0.663070  0.329388  1
  O  O97  1  0.699558  0.966191  0.380519  1
  O  O98  1  0.344741  0.407515  0.273901  1
  O  O99  1  0.714789  0.485191  0.553039  1
  O  O100  1  0.160538  0.632078  0.703562  1
  O  O101  1  0.911931  0.752003  0.003692  1
  O  O102  1  0.708236  0.506334  0.139117  1
  O  O103  1  0.825443  0.134185  0.220516  1
  O  O104  1  0.674557  0.134185  0.720516  1
  O  O105  1  0.886896  0.663070  0.829388  1
  O  O106  1  0.196482  0.584579  0.118808  1
  O  O107  1  0.844741  0.592485  0.226099  1
