# generated using pymatgen
data_Nd13Cd58
_symmetry_space_group_name_H-M   'P 1'
_cell_length_a   15.97751324
_cell_length_b   15.97751366
_cell_length_c   15.66193780
_cell_angle_alpha   90.00000000
_cell_angle_beta   90.00000000
_cell_angle_gamma   119.99999913
_symmetry_Int_Tables_number   1
_chemical_formula_structural   Nd13Cd58
_chemical_formula_sum   'Nd26 Cd116'
_cell_volume   3462.53772642
_cell_formula_units_Z   2
loop_
 _symmetry_equiv_pos_site_id
 _symmetry_equiv_pos_as_xyz
  1  'x, y, z'
loop_
 _atom_site_type_symbol
 _atom_site_label
 _atom_site_symmetry_multiplicity
 _atom_site_fract_x
 _atom_site_fract_y
 _atom_site_fract_z
 _atom_site_occupancy
  Nd  Nd0  1  0.410937  0.205468  0.552385  1
  Nd  Nd1  1  0.871736  0.743473  0.250000  1
  Nd  Nd2  1  0.205468  0.410937  0.052385  1
  Nd  Nd3  1  0.086344  0.543172  0.750000  1
  Nd  Nd4  1  0.794532  0.589063  0.947615  1
  Nd  Nd5  1  0.794532  0.205468  0.552385  1
  Nd  Nd6  1  0.913656  0.456828  0.250000  1
  Nd  Nd7  1  0.794532  0.205468  0.947615  1
  Nd  Nd8  1  0.794532  0.589063  0.552385  1
  Nd  Nd9  1  0.456828  0.913656  0.750000  1
  Nd  Nd10  1  0.128264  0.871736  0.750000  1
  Nd  Nd11  1  0.871736  0.128264  0.250000  1
  Nd  Nd12  1  0.589063  0.794532  0.052385  1
  Nd  Nd13  1  0.589063  0.794532  0.447615  1
  Nd  Nd14  1  0.205468  0.794532  0.447615  1
  Nd  Nd15  1  0.000000  0.000000  0.000000  1
  Nd  Nd16  1  0.456828  0.543172  0.750000  1
  Nd  Nd17  1  0.543172  0.086344  0.250000  1
  Nd  Nd18  1  0.128264  0.256527  0.750000  1
  Nd  Nd19  1  0.743473  0.871736  0.750000  1
  Nd  Nd20  1  0.205468  0.410937  0.447615  1
  Nd  Nd21  1  0.410937  0.205468  0.947615  1
  Nd  Nd22  1  0.000000  0.000000  0.500000  1
  Nd  Nd23  1  0.256527  0.128264  0.250000  1
  Nd  Nd24  1  0.205468  0.794532  0.052385  1
  Nd  Nd25  1  0.543172  0.456828  0.250000  1
  Cd  Cd26  1  0.907463  0.092537  0.655696  1
  Cd  Cd27  1  0.000000  0.198992  0.000000  1
  Cd  Cd28  1  0.634960  0.963931  0.602524  1
  Cd  Cd29  1  0.365040  0.328971  0.397476  1
  Cd  Cd30  1  0.671029  0.634960  0.102524  1
  Cd  Cd31  1  0.600311  0.399689  0.051928  1
  Cd  Cd32  1  0.634960  0.671029  0.897476  1
  Cd  Cd33  1  0.963931  0.634960  0.102524  1
  Cd  Cd34  1  0.200621  0.600311  0.948072  1
  Cd  Cd35  1  0.092537  0.907463  0.344304  1
  Cd  Cd36  1  0.561261  0.122523  0.645430  1
  Cd  Cd37  1  0.814925  0.907463  0.344304  1
  Cd  Cd38  1  0.732659  0.267341  0.750000  1
  Cd  Cd39  1  0.438739  0.877477  0.354570  1
  Cd  Cd40  1  0.328971  0.365040  0.897476  1
  Cd  Cd41  1  0.036069  0.671029  0.897476  1
  Cd  Cd42  1  0.530256  0.765128  0.841578  1
  Cd  Cd43  1  0.801008  0.801008  0.000000  1
  Cd  Cd44  1  0.365040  0.036069  0.397476  1
  Cd  Cd45  1  0.000000  0.198992  0.500000  1
  Cd  Cd46  1  0.918208  0.641660  0.750000  1
  Cd  Cd47  1  0.198992  0.198992  0.500000  1
  Cd  Cd48  1  0.671029  0.036069  0.102524  1
  Cd  Cd49  1  0.600311  0.399689  0.448072  1
  Cd  Cd50  1  0.765128  0.530256  0.341578  1
  Cd  Cd51  1  0.765128  0.530256  0.158422  1
  Cd  Cd52  1  0.963931  0.328971  0.102524  1
  Cd  Cd53  1  0.666667  0.333333  0.595390  1
  Cd  Cd54  1  0.276548  0.918208  0.250000  1
  Cd  Cd55  1  0.469744  0.234872  0.341578  1
  Cd  Cd56  1  0.036069  0.365040  0.602524  1
  Cd  Cd57  1  0.333333  0.666667  0.750000  1
  Cd  Cd58  1  0.723452  0.081792  0.750000  1
  Cd  Cd59  1  0.036069  0.365040  0.897476  1
  Cd  Cd60  1  0.801008  0.000000  0.500000  1
  Cd  Cd61  1  0.600311  0.200621  0.448072  1
  Cd  Cd62  1  0.671029  0.036069  0.397476  1
  Cd  Cd63  1  0.358340  0.081792  0.750000  1
  Cd  Cd64  1  0.918208  0.276548  0.750000  1
  Cd  Cd65  1  0.000000  0.801008  0.000000  1
  Cd  Cd66  1  0.438739  0.561261  0.145430  1
  Cd  Cd67  1  0.122523  0.561261  0.354570  1
  Cd  Cd68  1  0.500000  0.000000  0.500000  1
  Cd  Cd69  1  0.907463  0.814925  0.844304  1
  Cd  Cd70  1  0.092537  0.185075  0.155696  1
  Cd  Cd71  1  0.036069  0.671029  0.602524  1
  Cd  Cd72  1  0.328971  0.365040  0.602524  1
  Cd  Cd73  1  0.561261  0.122523  0.854570  1
  Cd  Cd74  1  0.200621  0.600311  0.551928  1
  Cd  Cd75  1  0.634960  0.671029  0.602524  1
  Cd  Cd76  1  0.438739  0.561261  0.354570  1
  Cd  Cd77  1  0.000000  0.000000  0.250000  1
  Cd  Cd78  1  0.600311  0.200621  0.051928  1
  Cd  Cd79  1  0.799379  0.399689  0.448072  1
  Cd  Cd80  1  0.732659  0.465317  0.750000  1
  Cd  Cd81  1  0.399689  0.799379  0.948072  1
  Cd  Cd82  1  0.666667  0.333333  0.904610  1
  Cd  Cd83  1  0.234872  0.469744  0.841578  1
  Cd  Cd84  1  0.765128  0.234872  0.158422  1
  Cd  Cd85  1  0.276548  0.358340  0.250000  1
  Cd  Cd86  1  0.399689  0.600311  0.551928  1
  Cd  Cd87  1  0.365040  0.036069  0.102524  1
  Cd  Cd88  1  0.765128  0.234872  0.341578  1
  Cd  Cd89  1  0.814925  0.907463  0.155696  1
  Cd  Cd90  1  0.328971  0.963931  0.897476  1
  Cd  Cd91  1  0.877477  0.438739  0.854570  1
  Cd  Cd92  1  0.907463  0.814925  0.655696  1
  Cd  Cd93  1  0.122523  0.561261  0.145430  1
  Cd  Cd94  1  0.963931  0.328971  0.397476  1
  Cd  Cd95  1  0.641660  0.723452  0.250000  1
  Cd  Cd96  1  0.561261  0.438739  0.854570  1
  Cd  Cd97  1  0.469744  0.234872  0.158422  1
  Cd  Cd98  1  0.801008  0.801008  0.500000  1
  Cd  Cd99  1  0.000000  0.000000  0.750000  1
  Cd  Cd100  1  0.185075  0.092537  0.655696  1
  Cd  Cd101  1  0.198992  0.198992  0.000000  1
  Cd  Cd102  1  0.198992  0.000000  0.500000  1
  Cd  Cd103  1  0.081792  0.358340  0.250000  1
  Cd  Cd104  1  0.671029  0.634960  0.397476  1
  Cd  Cd105  1  0.530256  0.765128  0.658422  1
  Cd  Cd106  1  0.799379  0.399689  0.051928  1
  Cd  Cd107  1  0.365040  0.328971  0.102524  1
  Cd  Cd108  1  0.234872  0.765128  0.841578  1
  Cd  Cd109  1  0.666667  0.333333  0.250000  1
  Cd  Cd110  1  0.438739  0.877477  0.145430  1
  Cd  Cd111  1  0.500000  0.500000  0.000000  1
  Cd  Cd112  1  0.000000  0.500000  0.500000  1
  Cd  Cd113  1  0.234872  0.765128  0.658422  1
  Cd  Cd114  1  0.333333  0.666667  0.404610  1
  Cd  Cd115  1  0.198992  0.000000  0.000000  1
  Cd  Cd116  1  0.081792  0.723452  0.250000  1
  Cd  Cd117  1  0.000000  0.801008  0.500000  1
  Cd  Cd118  1  0.634960  0.963931  0.897476  1
  Cd  Cd119  1  0.500000  0.500000  0.500000  1
  Cd  Cd120  1  0.185075  0.092537  0.844304  1
  Cd  Cd121  1  0.534683  0.267341  0.750000  1
  Cd  Cd122  1  0.092537  0.907463  0.155696  1
  Cd  Cd123  1  0.907463  0.092537  0.844304  1
  Cd  Cd124  1  0.561261  0.438739  0.645430  1
  Cd  Cd125  1  0.358340  0.276548  0.750000  1
  Cd  Cd126  1  0.267341  0.732659  0.250000  1
  Cd  Cd127  1  0.963931  0.634960  0.397476  1
  Cd  Cd128  1  0.333333  0.666667  0.095390  1
  Cd  Cd129  1  0.267341  0.534683  0.250000  1
  Cd  Cd130  1  0.801008  0.000000  0.000000  1
  Cd  Cd131  1  0.641660  0.918208  0.250000  1
  Cd  Cd132  1  0.500000  0.000000  0.000000  1
  Cd  Cd133  1  0.877477  0.438739  0.645430  1
  Cd  Cd134  1  0.328971  0.963931  0.602524  1
  Cd  Cd135  1  0.000000  0.500000  0.000000  1
  Cd  Cd136  1  0.092537  0.185075  0.344304  1
  Cd  Cd137  1  0.399689  0.600311  0.948072  1
  Cd  Cd138  1  0.234872  0.469744  0.658422  1
  Cd  Cd139  1  0.723452  0.641660  0.750000  1
  Cd  Cd140  1  0.399689  0.799379  0.551928  1
  Cd  Cd141  1  0.465317  0.732659  0.250000  1
