# generated using pymatgen
data_Ce2Co5B2
_symmetry_space_group_name_H-M   'P 1'
_cell_length_a   5.09179189
_cell_length_b   5.09179229
_cell_length_c   19.83956803
_cell_angle_alpha   90.00000000
_cell_angle_beta   90.00000000
_cell_angle_gamma   119.99999745
_symmetry_Int_Tables_number   1
_chemical_formula_structural   Ce2Co5B2
_chemical_formula_sum   'Ce8 Co20 B8'
_cell_volume   445.45534996
_cell_formula_units_Z   4
loop_
 _symmetry_equiv_pos_site_id
 _symmetry_equiv_pos_as_xyz
  1  'x, y, z'
loop_
 _atom_site_type_symbol
 _atom_site_label
 _atom_site_symmetry_multiplicity
 _atom_site_fract_x
 _atom_site_fract_y
 _atom_site_fract_z
 _atom_site_occupancy
  Ce  Ce0  1  0.666667  0.333333  0.828155  1
  Ce  Ce1  1  0.666667  0.333333  0.980699  1
  Ce  Ce2  1  0.333333  0.666667  0.480699  1
  Ce  Ce3  1  0.333333  0.666667  0.019301  1
  Ce  Ce4  1  0.333333  0.666667  0.171845  1
  Ce  Ce5  1  0.666667  0.333333  0.519301  1
  Ce  Ce6  1  0.666667  0.333333  0.671845  1
  Ce  Ce7  1  0.333333  0.666667  0.328155  1
  Co  Co8  1  0.162853  0.325706  0.894580  1
  Co  Co9  1  0.162853  0.837147  0.605420  1
  Co  Co10  1  0.837147  0.162853  0.394580  1
  Co  Co11  1  0.334790  0.167395  0.250000  1
  Co  Co12  1  0.325706  0.162853  0.394580  1
  Co  Co13  1  0.837147  0.674294  0.105420  1
  Co  Co14  1  0.837147  0.674294  0.394580  1
  Co  Co15  1  0.832605  0.665210  0.250000  1
  Co  Co16  1  0.674294  0.837147  0.605420  1
  Co  Co17  1  0.665210  0.832605  0.750000  1
  Co  Co18  1  0.837147  0.162853  0.105420  1
  Co  Co19  1  0.674294  0.837147  0.894580  1
  Co  Co20  1  0.000000  0.000000  0.000000  1
  Co  Co21  1  0.167395  0.334790  0.750000  1
  Co  Co22  1  0.167395  0.832605  0.750000  1
  Co  Co23  1  0.832605  0.167395  0.250000  1
  Co  Co24  1  0.325706  0.162853  0.105420  1
  Co  Co25  1  0.000000  0.000000  0.500000  1
  Co  Co26  1  0.162853  0.837147  0.894580  1
  Co  Co27  1  0.162853  0.325706  0.605420  1
  B  B28  1  0.333333  0.666667  0.825323  1
  B  B29  1  0.333333  0.666667  0.674677  1
  B  B30  1  0.666667  0.333333  0.325323  1
  B  B31  1  0.000000  0.000000  0.823122  1
  B  B32  1  0.666667  0.333333  0.174677  1
  B  B33  1  0.000000  0.000000  0.676878  1
  B  B34  1  0.000000  0.000000  0.323122  1
  B  B35  1  0.000000  0.000000  0.176878  1
