# generated using pymatgen
data_Nd(BIr)4
_symmetry_space_group_name_H-M   'P 1'
_cell_length_a   3.99445481
_cell_length_b   7.70268591
_cell_length_c   7.70268591
_cell_angle_alpha   90.00000000
_cell_angle_beta   90.00000000
_cell_angle_gamma   90.00000000
_symmetry_Int_Tables_number   1
_chemical_formula_structural   Nd(BIr)4
_chemical_formula_sum   'Nd2 B8 Ir8'
_cell_volume   236.99647719
_cell_formula_units_Z   2
loop_
 _symmetry_equiv_pos_site_id
 _symmetry_equiv_pos_as_xyz
  1  'x, y, z'
loop_
 _atom_site_type_symbol
 _atom_site_label
 _atom_site_symmetry_multiplicity
 _atom_site_fract_x
 _atom_site_fract_y
 _atom_site_fract_z
 _atom_site_occupancy
  B  B0  1  0.858687  0.029271  0.908293  1
  B  B1  1  0.141313  0.529271  0.408293  1
  B  B2  1  0.358687  0.091707  0.529271  1
  B  B3  1  0.358687  0.408293  0.970729  1
  B  B4  1  0.858687  0.470729  0.591707  1
  B  B5  1  0.141313  0.970729  0.091707  1
  B  B6  1  0.641313  0.908293  0.470729  1
  B  B7  1  0.641313  0.591707  0.029271  1
  Nd  Nd8  1  0.250000  0.750000  0.750000  1
  Nd  Nd9  1  0.750000  0.250000  0.250000  1
  Ir  Ir10  1  0.359139  0.359609  0.590966  1
  Ir  Ir11  1  0.359139  0.140391  0.909034  1
  Ir  Ir12  1  0.859139  0.409034  0.859609  1
  Ir  Ir13  1  0.140861  0.909034  0.359609  1
  Ir  Ir14  1  0.640861  0.640391  0.409034  1
  Ir  Ir15  1  0.640861  0.859609  0.090966  1
  Ir  Ir16  1  0.140861  0.590966  0.140391  1
  Ir  Ir17  1  0.859139  0.090966  0.640391  1
