# generated using pymatgen
data_Nd(BOs)4
_symmetry_space_group_name_H-M   'P 1'
_cell_length_a   4.00770763
_cell_length_b   7.62822829
_cell_length_c   7.62822829
_cell_angle_alpha   90.00000000
_cell_angle_beta   90.00000000
_cell_angle_gamma   90.00000000
_symmetry_Int_Tables_number   1
_chemical_formula_structural   Nd(BOs)4
_chemical_formula_sum   'Nd2 B8 Os8'
_cell_volume   233.20797334
_cell_formula_units_Z   2
loop_
 _symmetry_equiv_pos_site_id
 _symmetry_equiv_pos_as_xyz
  1  'x, y, z'
loop_
 _atom_site_type_symbol
 _atom_site_label
 _atom_site_symmetry_multiplicity
 _atom_site_fract_x
 _atom_site_fract_y
 _atom_site_fract_z
 _atom_site_occupancy
  B  B0  1  0.861016  0.030590  0.914294  1
  B  B1  1  0.138984  0.530590  0.414294  1
  B  B2  1  0.361016  0.085706  0.530590  1
  B  B3  1  0.361016  0.414294  0.969410  1
  B  B4  1  0.861016  0.469410  0.585706  1
  B  B5  1  0.138984  0.969410  0.085706  1
  B  B6  1  0.638984  0.914294  0.469410  1
  B  B7  1  0.638984  0.585706  0.030590  1
  Nd  Nd8  1  0.250000  0.750000  0.750000  1
  Nd  Nd9  1  0.750000  0.250000  0.250000  1
  Os  Os10  1  0.362255  0.356616  0.603875  1
  Os  Os11  1  0.362255  0.143384  0.896125  1
  Os  Os12  1  0.862255  0.396125  0.856616  1
  Os  Os13  1  0.137745  0.896125  0.356616  1
  Os  Os14  1  0.637745  0.643384  0.396125  1
  Os  Os15  1  0.637745  0.856616  0.103875  1
  Os  Os16  1  0.137745  0.603875  0.143384  1
  Os  Os17  1  0.862255  0.103875  0.643384  1
