# generated using pymatgen
data_Nd(CoB)4
_symmetry_space_group_name_H-M   'P 1'
_cell_length_a   3.80271488
_cell_length_b   7.08032168
_cell_length_c   7.08032168
_cell_angle_alpha   90.00000000
_cell_angle_beta   90.00000000
_cell_angle_gamma   90.00000000
_symmetry_Int_Tables_number   1
_chemical_formula_structural   Nd(CoB)4
_chemical_formula_sum   'Nd2 Co8 B8'
_cell_volume   190.63372888
_cell_formula_units_Z   2
loop_
 _symmetry_equiv_pos_site_id
 _symmetry_equiv_pos_as_xyz
  1  'x, y, z'
loop_
 _atom_site_type_symbol
 _atom_site_label
 _atom_site_symmetry_multiplicity
 _atom_site_fract_x
 _atom_site_fract_y
 _atom_site_fract_z
 _atom_site_occupancy
  Nd  Nd0  1  0.250000  0.250000  0.250000  1
  Nd  Nd1  1  0.750000  0.750000  0.750000  1
  Co  Co2  1  0.644290  0.134892  0.606885  1
  Co  Co3  1  0.144290  0.106885  0.865108  1
  Co  Co4  1  0.644290  0.365108  0.893115  1
  Co  Co5  1  0.355710  0.865108  0.393115  1
  Co  Co6  1  0.855710  0.893115  0.134892  1
  Co  Co7  1  0.355710  0.634892  0.106885  1
  Co  Co8  1  0.144290  0.393115  0.634892  1
  Co  Co9  1  0.855710  0.606885  0.365108  1
  B  B10  1  0.853405  0.544880  0.088440  1
  B  B11  1  0.853405  0.955120  0.411560  1
  B  B12  1  0.353405  0.911560  0.044880  1
  B  B13  1  0.146595  0.044880  0.588440  1
  B  B14  1  0.146595  0.455120  0.911560  1
  B  B15  1  0.646595  0.411560  0.544880  1
  B  B16  1  0.646595  0.088440  0.955120  1
  B  B17  1  0.353405  0.588440  0.455120  1
