# generated using pymatgen
data_NdCrO4
_symmetry_space_group_name_H-M   'P 1'
_cell_length_a   6.16762898
_cell_length_b   6.16762898
_cell_length_c   6.16762898
_cell_angle_alpha   105.84779367
_cell_angle_beta   105.84779367
_cell_angle_gamma   116.98996336
_symmetry_Int_Tables_number   1
_chemical_formula_structural   NdCrO4
_chemical_formula_sum   'Nd2 Cr2 O8'
_cell_volume   178.24478573
_cell_formula_units_Z   2
loop_
 _symmetry_equiv_pos_site_id
 _symmetry_equiv_pos_as_xyz
  1  'x, y, z'
loop_
 _atom_site_type_symbol
 _atom_site_label
 _atom_site_symmetry_multiplicity
 _atom_site_fract_x
 _atom_site_fract_y
 _atom_site_fract_z
 _atom_site_occupancy
  O  O0  1  0.793750  0.724020  0.430270  1
  O  O1  1  0.363480  0.793750  0.569730  1
  O  O2  1  0.724020  0.793750  0.930270  1
  O  O3  1  0.793750  0.363480  0.069730  1
  O  O4  1  0.636520  0.206250  0.430270  1
  O  O5  1  0.206250  0.275980  0.569730  1
  O  O6  1  0.206250  0.636520  0.930270  1
  O  O7  1  0.275980  0.206250  0.069730  1
  Cr  Cr8  1  0.375000  0.625000  0.750000  1
  Cr  Cr9  1  0.625000  0.375000  0.250000  1
  Nd  Nd10  1  0.125000  0.875000  0.250000  1
  Nd  Nd11  1  0.875000  0.125000  0.750000  1
