# generated using pymatgen
data_Nd(CuO2)2
_symmetry_space_group_name_H-M   'P 1'
_cell_length_a   5.84598071
_cell_length_b   5.84521416
_cell_length_c   6.39123763
_cell_angle_alpha   117.17155690
_cell_angle_beta   117.17542452
_cell_angle_gamma   90.07856147
_symmetry_Int_Tables_number   1
_chemical_formula_structural   Nd(CuO2)2
_chemical_formula_sum   'Nd2 Cu4 O8'
_cell_volume   166.65434839
_cell_formula_units_Z   2
loop_
 _symmetry_equiv_pos_site_id
 _symmetry_equiv_pos_as_xyz
  1  'x, y, z'
loop_
 _atom_site_type_symbol
 _atom_site_label
 _atom_site_symmetry_multiplicity
 _atom_site_fract_x
 _atom_site_fract_y
 _atom_site_fract_z
 _atom_site_occupancy
  O  O0  1  0.707771  0.530410  0.851152  1
  O  O1  1  0.143381  0.820742  0.851152  1
  O  O2  1  0.292229  0.469590  0.148848  1
  O  O3  1  0.856619  0.179258  0.148848  1
  O  O4  1  0.530834  0.143564  0.351083  1
  O  O5  1  0.820249  0.707519  0.351083  1
  O  O6  1  0.179751  0.292481  0.648917  1
  O  O7  1  0.469166  0.856436  0.648917  1
  Cu  Cu8  1  0.500000  0.000000  0.000000  1
  Cu  Cu9  1  0.500000  0.500000  0.000000  1
  Cu  Cu10  1  0.000000  0.500000  0.500000  1
  Cu  Cu11  1  0.500000  0.500000  0.500000  1
  Nd  Nd12  1  0.874971  0.124971  0.749942  1
  Nd  Nd13  1  0.125029  0.875029  0.250058  1
