# generated using pymatgen
data_Nd(MoO2)6
_symmetry_space_group_name_H-M   'P 1'
_cell_length_a   8.36088311
_cell_length_b   8.36088278
_cell_length_c   8.36088360
_cell_angle_alpha   105.83998980
_cell_angle_beta   105.83998911
_cell_angle_gamma   117.00681485
_symmetry_Int_Tables_number   1
_chemical_formula_structural   Nd(MoO2)6
_chemical_formula_sum   'Nd2 Mo12 O24'
_cell_volume   444.00988560
_cell_formula_units_Z   2
loop_
 _symmetry_equiv_pos_site_id
 _symmetry_equiv_pos_as_xyz
  1  'x, y, z'
loop_
 _atom_site_type_symbol
 _atom_site_label
 _atom_site_symmetry_multiplicity
 _atom_site_fract_x
 _atom_site_fract_y
 _atom_site_fract_z
 _atom_site_occupancy
  Nd  Nd0  1  0.792540  0.792540  0.000000  1
  Nd  Nd1  1  0.207460  0.207460  1.000000  1
  Mo  Mo2  1  0.663107  0.184218  0.847325  1
  Mo  Mo3  1  0.526355  0.677725  0.524041  1
  Mo  Mo4  1  0.815782  0.663107  0.478890  1
  Mo  Mo5  1  0.002314  0.526355  0.848630  1
  Mo  Mo6  1  0.336893  0.815782  0.152675  1
  Mo  Mo7  1  0.677725  0.153684  0.151370  1
  Mo  Mo8  1  0.184218  0.336893  0.521110  1
  Mo  Mo9  1  0.153684  0.002314  0.475959  1
  Mo  Mo10  1  0.997686  0.473645  0.151370  1
  Mo  Mo11  1  0.473645  0.322275  0.475959  1
  Mo  Mo12  1  0.322275  0.846316  0.848630  1
  Mo  Mo13  1  0.846316  0.997686  0.524041  1
  O  O14  1  0.460239  0.164200  0.956473  1
  O  O15  1  0.207727  0.503767  0.043527  1
  O  O16  1  0.209375  0.497480  0.373886  1
  O  O17  1  0.835489  0.209375  0.711895  1
  O  O18  1  0.460636  0.163944  0.624580  1
  O  O19  1  0.164200  0.207727  0.703961  1
  O  O20  1  0.163944  0.539364  0.703308  1
  O  O21  1  0.539761  0.835800  0.043527  1
  O  O22  1  0.123594  0.835489  0.626114  1
  O  O23  1  0.164511  0.790625  0.288105  1
  O  O24  1  0.842758  0.876555  0.719313  1
  O  O25  1  0.123445  0.842758  0.966202  1
  O  O26  1  0.496233  0.539761  0.703961  1
  O  O27  1  0.792273  0.496233  0.956473  1
  O  O28  1  0.539364  0.836056  0.375420  1
  O  O29  1  0.835800  0.792273  0.296039  1
  O  O30  1  0.503767  0.460239  0.296039  1
  O  O31  1  0.157242  0.123445  0.280687  1
  O  O32  1  0.876406  0.164511  0.373886  1
  O  O33  1  0.497480  0.123594  0.288105  1
  O  O34  1  0.836056  0.460636  0.296692  1
  O  O35  1  0.502520  0.876406  0.711895  1
  O  O36  1  0.876555  0.157242  0.033798  1
  O  O37  1  0.790625  0.502520  0.626114  1
