# generated using pymatgen
data_Nd(Mo4O7)2
_symmetry_space_group_name_H-M   'P 1'
_cell_length_a   8.22662818
_cell_length_b   8.22662874
_cell_length_c   9.41286698
_cell_angle_alpha   90.00000000
_cell_angle_beta   90.00000000
_cell_angle_gamma   97.80182546
_symmetry_Int_Tables_number   1
_chemical_formula_structural   Nd(Mo4O7)2
_chemical_formula_sum   'Nd2 Mo16 O28'
_cell_volume   631.14177555
_cell_formula_units_Z   2
loop_
 _symmetry_equiv_pos_site_id
 _symmetry_equiv_pos_as_xyz
  1  'x, y, z'
loop_
 _atom_site_type_symbol
 _atom_site_label
 _atom_site_symmetry_multiplicity
 _atom_site_fract_x
 _atom_site_fract_y
 _atom_site_fract_z
 _atom_site_occupancy
  O  O0  1  0.941478  0.258443  0.746664  1
  O  O1  1  0.691072  0.308928  0.500000  1
  O  O2  1  0.191072  0.808928  0.000000  1
  O  O3  1  0.219314  0.780687  0.500000  1
  O  O4  1  0.719314  0.280687  0.000000  1
  O  O5  1  0.815718  0.663885  0.502892  1
  O  O6  1  0.336115  0.184282  0.497108  1
  O  O7  1  0.315718  0.163885  0.997108  1
  O  O8  1  0.836116  0.684282  0.002892  1
  O  O9  1  0.666295  0.518121  0.746400  1
  O  O10  1  0.481879  0.333705  0.253601  1
  O  O11  1  0.166295  0.018121  0.753601  1
  O  O12  1  0.981880  0.833705  0.246400  1
  O  O13  1  0.823041  0.912724  0.707145  1
  O  O14  1  0.087276  0.176959  0.292854  1
  O  O15  1  0.323041  0.412724  0.792854  1
  O  O16  1  0.864409  0.451047  0.241667  1
  O  O17  1  0.548953  0.135591  0.758334  1
  O  O18  1  0.364409  0.951047  0.258334  1
  O  O19  1  0.048953  0.635591  0.741667  1
  O  O20  1  0.241557  0.558521  0.246664  1
  O  O21  1  0.441478  0.758443  0.753336  1
  O  O22  1  0.741558  0.058521  0.253336  1
  O  O23  1  0.587275  0.676959  0.207146  1
  O  O24  1  0.072363  0.391350  0.019723  1
  O  O25  1  0.608649  0.927636  0.980276  1
  O  O26  1  0.572363  0.891350  0.480276  1
  O  O27  1  0.108650  0.427637  0.519723  1
  Mo  Mo28  1  0.899075  0.238262  0.145521  1
  Mo  Mo29  1  0.884236  0.460686  0.629076  1
  Mo  Mo30  1  0.539315  0.115763  0.370923  1
  Mo  Mo31  1  0.384237  0.960686  0.870923  1
  Mo  Mo32  1  0.039315  0.615763  0.129077  1
  Mo  Mo33  1  0.494236  0.335921  0.643157  1
  Mo  Mo34  1  0.664080  0.505765  0.356843  1
  Mo  Mo35  1  0.994235  0.835921  0.856843  1
  Mo  Mo36  1  0.164080  0.005765  0.143157  1
  Mo  Mo37  1  0.761738  0.100926  0.854479  1
  Mo  Mo38  1  0.260516  0.365913  0.372854  1
  Mo  Mo39  1  0.134087  0.239483  0.872854  1
  Mo  Mo40  1  0.760517  0.865913  0.127146  1
  Mo  Mo41  1  0.261738  0.600926  0.645521  1
  Mo  Mo42  1  0.399075  0.738262  0.354479  1
  Mo  Mo43  1  0.634086  0.739483  0.627146  1
  Nd  Nd44  1  0.543220  0.456781  0.000000  1
  Nd  Nd45  1  0.043220  0.956781  0.500000  1
