# generated using pymatgen
data_NdNbO4
_symmetry_space_group_name_H-M   'P 1'
_cell_length_a   5.27976299
_cell_length_b   5.47535191
_cell_length_c   6.85044437
_cell_angle_alpha   112.43707881
_cell_angle_beta   111.51392973
_cell_angle_gamma   92.67220800
_symmetry_Int_Tables_number   1
_chemical_formula_structural   NdNbO4
_chemical_formula_sum   'Nd2 Nb2 O8'
_cell_volume   166.23452875
_cell_formula_units_Z   2
loop_
 _symmetry_equiv_pos_site_id
 _symmetry_equiv_pos_as_xyz
  1  'x, y, z'
loop_
 _atom_site_type_symbol
 _atom_site_label
 _atom_site_symmetry_multiplicity
 _atom_site_fract_x
 _atom_site_fract_y
 _atom_site_fract_z
 _atom_site_occupancy
  O  O0  1  0.788382  0.946838  0.583619  1
  O  O1  1  0.295237  0.636781  0.583619  1
  O  O2  1  0.211618  0.053162  0.416381  1
  O  O3  1  0.704763  0.363219  0.416381  1
  O  O4  1  0.099758  0.281636  0.069034  1
  O  O5  1  0.469275  0.787398  0.069034  1
  O  O6  1  0.900242  0.718364  0.930966  1
  O  O7  1  0.530725  0.212602  0.930966  1
  Nb  Nb8  1  0.638003  0.888003  0.776007  1
  Nb  Nb9  1  0.361997  0.111997  0.223993  1
  Nd  Nd10  1  0.122722  0.372722  0.745444  1
  Nd  Nd11  1  0.877278  0.627278  0.254556  1
