# generated using pymatgen
data_Ag2Mo2O7
_symmetry_space_group_name_H-M   'P 1'
_cell_length_a   6.17287731
_cell_length_b   7.76071881
_cell_length_c   7.74705892
_cell_angle_alpha   111.66372709
_cell_angle_beta   93.08969197
_cell_angle_gamma   110.37082200
_symmetry_Int_Tables_number   1
_chemical_formula_structural   Ag2Mo2O7
_chemical_formula_sum   'Ag4 Mo4 O14'
_cell_volume   316.17923406
_cell_formula_units_Z   2
loop_
 _symmetry_equiv_pos_site_id
 _symmetry_equiv_pos_as_xyz
  1  'x, y, z'
loop_
 _atom_site_type_symbol
 _atom_site_label
 _atom_site_symmetry_multiplicity
 _atom_site_fract_x
 _atom_site_fract_y
 _atom_site_fract_z
 _atom_site_occupancy
  O  O0  1  0.745840  0.615245  0.935134  1
  O  O1  1  0.254160  0.384755  0.064866  1
  O  O2  1  0.918463  0.619994  0.604342  1
  O  O3  1  0.081537  0.380006  0.395658  1
  O  O4  1  0.354623  0.650353  0.770838  1
  O  O5  1  0.645377  0.349647  0.229162  1
  O  O6  1  0.496919  0.658707  0.465880  1
  O  O7  1  0.503081  0.341293  0.534120  1
  O  O8  1  0.650679  0.020905  0.297039  1
  O  O9  1  0.349321  0.979095  0.702961  1
  O  O10  1  0.185460  0.059360  0.165671  1
  O  O11  1  0.814540  0.940640  0.834329  1
  O  O12  1  0.875848  0.265235  0.672071  1
  O  O13  1  0.124152  0.734765  0.327929  1
  Mo  Mo14  1  0.771972  0.277664  0.459010  1
  Mo  Mo15  1  0.228028  0.722336  0.540990  1
  Mo  Mo16  1  0.332682  0.321106  0.251104  1
  Mo  Mo17  1  0.667318  0.678894  0.748896  1
  Ag  Ag18  1  0.758658  0.256408  0.947269  1
  Ag  Ag19  1  0.241342  0.743592  0.052731  1
  Ag  Ag20  1  0.236612  0.240188  0.735364  1
  Ag  Ag21  1  0.763388  0.759812  0.264636  1
