# generated using pymatgen
data_CeHfO4
_symmetry_space_group_name_H-M   'P 1'
_cell_length_a   7.45785111
_cell_length_b   10.55577228
_cell_length_c   10.55797832
_cell_angle_alpha   90.01682823
_cell_angle_beta   90.01096961
_cell_angle_gamma   45.05060342
_symmetry_Int_Tables_number   1
_chemical_formula_structural   CeHfO4
_chemical_formula_sum   'Ce8 Hf8 O32'
_cell_volume   588.23748911
_cell_formula_units_Z   8
loop_
 _symmetry_equiv_pos_site_id
 _symmetry_equiv_pos_as_xyz
  1  'x, y, z'
loop_
 _atom_site_type_symbol
 _atom_site_label
 _atom_site_symmetry_multiplicity
 _atom_site_fract_x
 _atom_site_fract_y
 _atom_site_fract_z
 _atom_site_occupancy
  Ce  Ce0  1  0.247825  0.251717  0.373836  1
  Ce  Ce1  1  0.250664  0.750233  0.874331  1
  Ce  Ce2  1  0.248295  0.501838  0.623948  1
  Ce  Ce3  1  0.249888  0.000258  0.124112  1
  Ce  Ce4  1  0.748703  0.501392  0.624020  1
  Ce  Ce5  1  0.750065  0.999971  0.123951  1
  Ce  Ce6  1  0.747743  0.751619  0.374095  1
  Ce  Ce7  1  0.750323  0.250182  0.873845  1
  Hf  Hf8  1  0.246771  0.500123  0.122028  1
  Hf  Hf9  1  0.244506  0.002107  0.621964  1
  Hf  Hf10  1  0.260963  0.738593  0.367763  1
  Hf  Hf11  1  0.245565  0.255213  0.875516  1
  Hf  Hf12  1  0.752617  0.246684  0.375372  1
  Hf  Hf13  1  0.737280  0.763249  0.867253  1
  Hf  Hf14  1  0.754293  0.499925  0.121334  1
  Hf  Hf15  1  0.751913  0.002032  0.621443  1
  O  O16  1  0.019647  0.737733  0.246895  1
  O  O17  1  0.002839  0.996122  0.263053  1
  O  O18  1  0.997170  0.739260  0.996894  1
  O  O19  1  0.985464  0.012574  0.504571  1
  O  O20  1  0.001627  0.999235  0.000150  1
  O  O21  1  0.000040  0.001755  0.740270  1
  O  O22  1  0.004109  0.761959  0.496792  1
  O  O23  1  0.023273  0.240937  0.747563  1
  O  O24  1  0.502351  0.998979  0.511751  1
  O  O25  1  0.501389  0.262227  0.247168  1
  O  O26  1  0.501663  0.997533  0.751484  1
  O  O27  1  0.497293  0.762580  0.745537  1
  O  O28  1  0.469041  0.764515  0.495696  1
  O  O29  1  0.482000  0.260393  0.997127  1
  O  O30  1  0.505084  0.496128  0.488802  1
  O  O31  1  0.499590  0.500488  0.749388  1
  O  O32  1  0.498289  0.001601  0.249432  1
  O  O33  1  0.495923  0.004387  0.988843  1
  O  O34  1  0.514412  0.242363  0.496942  1
  O  O35  1  0.527388  0.738263  0.995506  1
  O  O36  1  0.502143  0.738933  0.245333  1
  O  O37  1  0.494368  0.505390  0.251382  1
  O  O38  1  0.497421  0.239552  0.747032  1
  O  O39  1  0.498989  0.501421  0.011682  1
  O  O40  1  0.973719  0.261608  0.247554  1
  O  O41  1  0.995664  0.503523  0.499721  1
  O  O42  1  0.010044  0.491292  0.003850  1
  O  O43  1  0.999553  0.499479  0.239860  1
  O  O44  1  0.977263  0.764615  0.746660  1
  O  O45  1  0.996030  0.505293  0.762547  1
  O  O46  1  0.997840  0.261285  0.997562  1
  O  O47  1  0.003036  0.239538  0.497568  1
