# generated using pymatgen
data_Nd2Ni5B4
_symmetry_space_group_name_H-M   'P 1'
_cell_length_a   5.09494685
_cell_length_b   5.52416968
_cell_length_c   6.13345856
_cell_angle_alpha   70.88527781
_cell_angle_beta   65.45924200
_cell_angle_gamma   62.53863005
_symmetry_Int_Tables_number   1
_chemical_formula_structural   Nd2Ni5B4
_chemical_formula_sum   'Nd2 Ni5 B4'
_cell_volume   137.34991160
_cell_formula_units_Z   1
loop_
 _symmetry_equiv_pos_site_id
 _symmetry_equiv_pos_as_xyz
  1  'x, y, z'
loop_
 _atom_site_type_symbol
 _atom_site_label
 _atom_site_symmetry_multiplicity
 _atom_site_fract_x
 _atom_site_fract_y
 _atom_site_fract_z
 _atom_site_occupancy
  B  B0  1  0.599234  0.941791  0.859741  1
  B  B1  1  0.400766  0.058209  0.140259  1
  B  B2  1  0.221842  0.396756  0.159561  1
  B  B3  1  0.778158  0.603244  0.840439  1
  Ni  Ni4  1  0.326907  0.722043  0.127915  1
  Ni  Ni5  1  0.673093  0.277957  0.872085  1
  Ni  Ni6  1  0.000000  0.500000  0.500000  1
  Ni  Ni7  1  0.823135  0.722043  0.127915  1
  Ni  Ni8  1  0.176865  0.277957  0.872085  1
  Nd  Nd9  1  0.725405  0.198106  0.351083  1
  Nd  Nd10  1  0.274595  0.801894  0.648917  1
