# generated using pymatgen
data_Ce2Ni22C3
_symmetry_space_group_name_H-M   'P 1'
_cell_length_a   9.36793678
_cell_length_b   9.36793721
_cell_length_c   14.59051427
_cell_angle_alpha   90.00000000
_cell_angle_beta   90.00000000
_cell_angle_gamma   105.54225059
_symmetry_Int_Tables_number   1
_chemical_formula_structural   Ce2Ni22C3
_chemical_formula_sum   'Ce8 Ni88 C12'
_cell_volume   1233.61629307
_cell_formula_units_Z   4
loop_
 _symmetry_equiv_pos_site_id
 _symmetry_equiv_pos_as_xyz
  1  'x, y, z'
loop_
 _atom_site_type_symbol
 _atom_site_label
 _atom_site_symmetry_multiplicity
 _atom_site_fract_x
 _atom_site_fract_y
 _atom_site_fract_z
 _atom_site_occupancy
  Ce  Ce0  1  0.686978  0.813022  0.250000  1
  Ce  Ce1  1  0.708604  0.291396  0.473107  1
  Ce  Ce2  1  0.791396  0.208604  0.973107  1
  Ce  Ce3  1  0.291396  0.708604  0.526893  1
  Ce  Ce4  1  0.313022  0.186978  0.750000  1
  Ce  Ce5  1  0.186978  0.313022  0.250000  1
  Ce  Ce6  1  0.208604  0.791396  0.026893  1
  Ce  Ce7  1  0.813022  0.686978  0.750000  1
  Ni  Ni8  1  0.503130  0.496870  0.174749  1
  Ni  Ni9  1  0.548994  0.704615  0.628863  1
  Ni  Ni10  1  0.711870  0.640370  0.072830  1
  Ni  Ni11  1  0.428841  0.931493  0.682707  1
  Ni  Ni12  1  0.707429  0.954371  0.701952  1
  Ni  Ni13  1  0.440546  0.559454  0.342169  1
  Ni  Ni14  1  0.859630  0.788130  0.427170  1
  Ni  Ni15  1  0.597899  0.751367  0.449963  1
  Ni  Ni16  1  0.353618  0.646382  0.915382  1
  Ni  Ni17  1  0.402101  0.248633  0.550037  1
  Ni  Ni18  1  0.251367  0.097899  0.949963  1
  Ni  Ni19  1  0.103675  0.680127  0.843853  1
  Ni  Ni20  1  0.842196  0.157804  0.288154  1
  Ni  Ni21  1  0.319873  0.896325  0.843853  1
  Ni  Ni22  1  0.068507  0.571159  0.682707  1
  Ni  Ni23  1  0.211870  0.140370  0.427170  1
  Ni  Ni24  1  0.748633  0.902101  0.050037  1
  Ni  Ni25  1  0.071159  0.568507  0.182707  1
  Ni  Ni26  1  0.704615  0.548994  0.371137  1
  Ni  Ni27  1  0.181138  0.818862  0.232195  1
  Ni  Ni28  1  0.180127  0.603675  0.343853  1
  Ni  Ni29  1  0.451006  0.295385  0.371137  1
  Ni  Ni30  1  0.931493  0.428841  0.317293  1
  Ni  Ni31  1  0.910134  0.532763  0.048524  1
  Ni  Ni32  1  0.792571  0.545629  0.201952  1
  Ni  Ni33  1  0.967237  0.589866  0.451476  1
  Ni  Ni34  1  0.646382  0.353618  0.084618  1
  Ni  Ni35  1  0.545629  0.792571  0.798048  1
  Ni  Ni36  1  0.032763  0.410134  0.548524  1
  Ni  Ni37  1  0.045629  0.292571  0.701952  1
  Ni  Ni38  1  0.431493  0.928841  0.182707  1
  Ni  Ni39  1  0.996870  0.003130  0.674749  1
  Ni  Ni40  1  0.508260  0.269090  0.921545  1
  Ni  Ni41  1  0.396325  0.819873  0.343853  1
  Ni  Ni42  1  0.853618  0.146382  0.584618  1
  Ni  Ni43  1  0.491740  0.730910  0.078455  1
  Ni  Ni44  1  0.751367  0.597899  0.550037  1
  Ni  Ni45  1  0.954371  0.707429  0.298048  1
  Ni  Ni46  1  0.928841  0.431493  0.817293  1
  Ni  Ni47  1  0.342196  0.657804  0.211846  1
  Ni  Ni48  1  0.496870  0.503130  0.825251  1
  Ni  Ni49  1  0.991740  0.230910  0.421545  1
  Ni  Ni50  1  0.292571  0.045629  0.298048  1
  Ni  Ni51  1  0.454371  0.207429  0.201952  1
  Ni  Ni52  1  0.204615  0.048994  0.128863  1
  Ni  Ni53  1  0.230910  0.991740  0.578455  1
  Ni  Ni54  1  0.000000  0.000000  0.500000  1
  Ni  Ni55  1  0.603675  0.180127  0.656147  1
  Ni  Ni56  1  0.157804  0.842196  0.711846  1
  Ni  Ni57  1  0.559454  0.440546  0.657831  1
  Ni  Ni58  1  0.207429  0.454371  0.798048  1
  Ni  Ni59  1  0.269090  0.508260  0.078455  1
  Ni  Ni60  1  0.003130  0.996870  0.325251  1
  Ni  Ni61  1  0.940546  0.059454  0.157831  1
  Ni  Ni62  1  0.730910  0.491740  0.921545  1
  Ni  Ni63  1  0.048994  0.204615  0.871137  1
  Ni  Ni64  1  0.571159  0.068507  0.317293  1
  Ni  Ni65  1  0.788130  0.859630  0.572830  1
  Ni  Ni66  1  0.568507  0.071159  0.817293  1
  Ni  Ni67  1  0.097899  0.251367  0.050037  1
  Ni  Ni68  1  0.951006  0.795385  0.128863  1
  Ni  Ni69  1  0.795385  0.951006  0.871137  1
  Ni  Ni70  1  0.008260  0.769090  0.578455  1
  Ni  Ni71  1  0.295385  0.451006  0.628863  1
  Ni  Ni72  1  0.500000  0.500000  0.500000  1
  Ni  Ni73  1  0.318862  0.681138  0.732195  1
  Ni  Ni74  1  0.000000  0.000000  0.000000  1
  Ni  Ni75  1  0.819873  0.396325  0.656147  1
  Ni  Ni76  1  0.818862  0.181138  0.767805  1
  Ni  Ni77  1  0.146382  0.853618  0.415382  1
  Ni  Ni78  1  0.089866  0.467237  0.951476  1
  Ni  Ni79  1  0.589866  0.967237  0.548524  1
  Ni  Ni80  1  0.248633  0.402101  0.449963  1
  Ni  Ni81  1  0.896325  0.319873  0.156147  1
  Ni  Ni82  1  0.640370  0.711870  0.927170  1
  Ni  Ni83  1  0.532763  0.910134  0.951476  1
  Ni  Ni84  1  0.769090  0.008260  0.421545  1
  Ni  Ni85  1  0.467237  0.089866  0.048524  1
  Ni  Ni86  1  0.059454  0.940546  0.842169  1
  Ni  Ni87  1  0.657804  0.342196  0.788154  1
  Ni  Ni88  1  0.140370  0.211870  0.572830  1
  Ni  Ni89  1  0.500000  0.500000  0.000000  1
  Ni  Ni90  1  0.288130  0.359630  0.927170  1
  Ni  Ni91  1  0.681138  0.318862  0.267805  1
  Ni  Ni92  1  0.410134  0.032763  0.451476  1
  Ni  Ni93  1  0.680127  0.103675  0.156147  1
  Ni  Ni94  1  0.902101  0.748633  0.949963  1
  Ni  Ni95  1  0.359630  0.288130  0.072830  1
  C  C96  1  0.055575  0.944425  0.211015  1
  C  C97  1  0.432740  0.057366  0.916848  1
  C  C98  1  0.442634  0.067260  0.583152  1
  C  C99  1  0.942634  0.567260  0.916848  1
  C  C100  1  0.067260  0.442634  0.416848  1
  C  C101  1  0.555575  0.444425  0.288985  1
  C  C102  1  0.444425  0.555575  0.711015  1
  C  C103  1  0.057366  0.432740  0.083152  1
  C  C104  1  0.567260  0.942634  0.083152  1
  C  C105  1  0.557366  0.932740  0.416848  1
  C  C106  1  0.944425  0.055575  0.788985  1
  C  C107  1  0.932740  0.557366  0.583152  1
