# generated using pymatgen
data_NdTa7O19
_symmetry_space_group_name_H-M   'P 1'
_cell_length_a   6.29076704
_cell_length_b   6.29076704
_cell_length_c   20.15391887
_cell_angle_alpha   90.00000000
_cell_angle_beta   90.00000000
_cell_angle_gamma   119.99999998
_symmetry_Int_Tables_number   1
_chemical_formula_structural   NdTa7O19
_chemical_formula_sum   'Nd2 Ta14 O38'
_cell_volume   690.71254407
_cell_formula_units_Z   2
loop_
 _symmetry_equiv_pos_site_id
 _symmetry_equiv_pos_as_xyz
  1  'x, y, z'
loop_
 _atom_site_type_symbol
 _atom_site_label
 _atom_site_symmetry_multiplicity
 _atom_site_fract_x
 _atom_site_fract_y
 _atom_site_fract_z
 _atom_site_occupancy
  O  O0  1  0.333333  0.666667  0.632049  1
  O  O1  1  0.333333  0.666667  0.867951  1
  O  O2  1  0.333333  0.666667  0.367951  1
  O  O3  1  0.333333  0.666667  0.132049  1
  O  O4  1  0.666667  0.333333  0.667144  1
  O  O5  1  0.666667  0.333333  0.832856  1
  O  O6  1  0.666667  0.333333  0.332856  1
  O  O7  1  0.666667  0.333333  0.167144  1
  O  O8  1  0.374945  0.958521  0.750000  1
  O  O9  1  0.041479  0.416424  0.750000  1
  O  O10  1  0.583577  0.625055  0.750000  1
  O  O11  1  0.583577  0.958521  0.250000  1
  O  O12  1  0.041479  0.625055  0.250000  1
  O  O13  1  0.374945  0.416424  0.250000  1
  O  O14  1  0.948818  0.568951  0.443221  1
  O  O15  1  0.431049  0.051182  0.556779  1
  O  O16  1  0.244908  0.999861  0.153271  1
  O  O17  1  0.754953  0.755092  0.346729  1
  O  O18  1  0.000139  0.245047  0.346729  1
  O  O19  1  0.000139  0.245047  0.153271  1
  O  O20  1  0.754953  0.755092  0.153271  1
  O  O21  1  0.000139  0.755092  0.846729  1
  O  O22  1  0.754953  0.999861  0.846729  1
  O  O23  1  0.244908  0.245047  0.846729  1
  O  O24  1  0.754953  0.999861  0.653271  1
  O  O25  1  0.244908  0.245047  0.653271  1
  O  O26  1  0.244908  0.999861  0.346729  1
  O  O27  1  0.000139  0.755092  0.653271  1
  O  O28  1  0.431049  0.051182  0.943221  1
  O  O29  1  0.620133  0.568951  0.556779  1
  O  O30  1  0.948818  0.379867  0.556779  1
  O  O31  1  0.948818  0.379867  0.943221  1
  O  O32  1  0.620133  0.568951  0.943221  1
  O  O33  1  0.948818  0.568951  0.056779  1
  O  O34  1  0.620133  0.051182  0.056779  1
  O  O35  1  0.431049  0.379867  0.056779  1
  O  O36  1  0.620133  0.051182  0.443221  1
  O  O37  1  0.431049  0.379867  0.443221  1
  Nd  Nd38  1  0.333333  0.666667  0.000000  1
  Nd  Nd39  1  0.333333  0.666667  0.500000  1
  Ta  Ta40  1  0.359218  0.001320  0.655898  1
  Ta  Ta41  1  0.998680  0.357898  0.655898  1
  Ta  Ta42  1  0.359218  0.001320  0.844102  1
  Ta  Ta43  1  0.998680  0.357898  0.844102  1
  Ta  Ta44  1  0.642102  0.640782  0.844102  1
  Ta  Ta45  1  0.998680  0.640782  0.155898  1
  Ta  Ta46  1  0.642102  0.001320  0.155898  1
  Ta  Ta47  1  0.642102  0.001320  0.344102  1
  Ta  Ta48  1  0.998680  0.640782  0.344102  1
  Ta  Ta49  1  0.359218  0.357898  0.155898  1
  Ta  Ta50  1  0.666667  0.333333  0.500000  1
  Ta  Ta51  1  0.666667  0.333333  0.000000  1
  Ta  Ta52  1  0.359218  0.357898  0.344102  1
  Ta  Ta53  1  0.642102  0.640782  0.655898  1
