# generated using pymatgen
data_NdVO4
_symmetry_space_group_name_H-M   'P 1'
_cell_length_a   6.18408941
_cell_length_b   6.18408940
_cell_length_c   6.18408941
_cell_angle_alpha   106.05086334
_cell_angle_beta   106.05086331
_cell_angle_gamma   116.55257474
_symmetry_Int_Tables_number   1
_chemical_formula_structural   NdVO4
_chemical_formula_sum   'Nd2 V2 O8'
_cell_volume   179.94576779
_cell_formula_units_Z   2
loop_
 _symmetry_equiv_pos_site_id
 _symmetry_equiv_pos_as_xyz
  1  'x, y, z'
loop_
 _atom_site_type_symbol
 _atom_site_label
 _atom_site_symmetry_multiplicity
 _atom_site_fract_x
 _atom_site_fract_y
 _atom_site_fract_z
 _atom_site_occupancy
  O  O0  1  0.796338  0.366148  0.069810  1
  O  O1  1  0.796338  0.726528  0.430190  1
  O  O2  1  0.633852  0.203662  0.430190  1
  O  O3  1  0.203662  0.273472  0.569810  1
  O  O4  1  0.203662  0.633852  0.930190  1
  O  O5  1  0.273472  0.203662  0.069810  1
  O  O6  1  0.726528  0.796338  0.930190  1
  O  O7  1  0.366148  0.796338  0.569810  1
  V  V8  1  0.625000  0.375000  0.250000  1
  V  V9  1  0.375000  0.625000  0.750000  1
  Nd  Nd10  1  0.875000  0.125000  0.750000  1
  Nd  Nd11  1  0.125000  0.875000  0.250000  1
