# generated using pymatgen
data_NdZn11
_symmetry_space_group_name_H-M   'P 1'
_cell_length_a   6.84723409
_cell_length_b   8.28118097
_cell_length_c   8.28118096
_cell_angle_alpha   80.15884780
_cell_angle_beta   65.58005909
_cell_angle_gamma   65.58005911
_symmetry_Int_Tables_number   1
_chemical_formula_structural   NdZn11
_chemical_formula_sum   'Nd2 Zn22'
_cell_volume   389.31185030
_cell_formula_units_Z   2
loop_
 _symmetry_equiv_pos_site_id
 _symmetry_equiv_pos_as_xyz
  1  'x, y, z'
loop_
 _atom_site_type_symbol
 _atom_site_label
 _atom_site_symmetry_multiplicity
 _atom_site_fract_x
 _atom_site_fract_y
 _atom_site_fract_z
 _atom_site_occupancy
  Zn  Zn0  1  0.555495  0.576998  0.666233  1
  Zn  Zn1  1  0.798727  0.923002  0.833767  1
  Zn  Zn2  1  0.875000  0.250000  0.750000  1
  Zn  Zn3  1  0.125000  0.750000  0.250000  1
  Zn  Zn4  1  0.000000  0.500000  0.500000  1
  Zn  Zn5  1  0.000000  0.000000  0.500000  1
  Zn  Zn6  1  0.500000  0.500000  0.000000  1
  Zn  Zn7  1  0.000000  0.000000  0.000000  1
  Zn  Zn8  1  0.798727  0.333767  0.423002  1
  Zn  Zn9  1  0.721728  0.076998  0.333767  1
  Zn  Zn10  1  0.132494  0.423002  0.166233  1
  Zn  Zn11  1  0.555495  0.166233  0.076998  1
  Zn  Zn12  1  0.867506  0.333767  0.076998  1
  Zn  Zn13  1  0.278272  0.166233  0.423002  1
  Zn  Zn14  1  0.201273  0.076998  0.166233  1
  Zn  Zn15  1  0.444505  0.423002  0.333767  1
  Zn  Zn16  1  0.201273  0.666233  0.576998  1
  Zn  Zn17  1  0.278272  0.923002  0.666233  1
  Zn  Zn18  1  0.867506  0.576998  0.833767  1
  Zn  Zn19  1  0.444505  0.833767  0.923002  1
  Zn  Zn20  1  0.132494  0.666233  0.923002  1
  Zn  Zn21  1  0.721728  0.833767  0.576998  1
  Nd  Nd22  1  0.625000  0.750000  0.250000  1
  Nd  Nd23  1  0.375000  0.250000  0.750000  1
