# generated using pymatgen
data_NdZrO3
_symmetry_space_group_name_H-M   'P 1'
_cell_length_a   6.15775957
_cell_length_b   5.85756078
_cell_length_c   8.24787674
_cell_angle_alpha   134.48098045
_cell_angle_beta   89.99001592
_cell_angle_gamma   58.18601174
_symmetry_Int_Tables_number   1
_chemical_formula_structural   NdZrO3
_chemical_formula_sum   'Nd2 Zr2 O6'
_cell_volume   142.99281541
_cell_formula_units_Z   2
loop_
 _symmetry_equiv_pos_site_id
 _symmetry_equiv_pos_as_xyz
  1  'x, y, z'
loop_
 _atom_site_type_symbol
 _atom_site_label
 _atom_site_symmetry_multiplicity
 _atom_site_fract_x
 _atom_site_fract_y
 _atom_site_fract_z
 _atom_site_occupancy
  Nd  Nd0  1  0.544099  0.432039  0.218864  1
  Nd  Nd1  1  0.463619  0.575055  0.787458  1
  Zr  Zr2  1  0.000332  0.506382  0.504755  1
  Zr  Zr3  1  0.004211  0.499847  0.001503  1
  O  O4  1  0.009441  0.997461  0.182953  1
  O  O5  1  0.997951  0.004752  0.821149  1
  O  O6  1  0.503804  0.008719  0.830513  1
  O  O7  1  0.498975  0.003546  0.184125  1
  O  O8  1  0.123402  0.273112  0.638784  1
  O  O9  1  0.873041  0.734600  0.368641  1
