# generated using pymatgen
data_Ce2ReC2
_symmetry_space_group_name_H-M   'P 1'
_cell_length_a   6.59149190
_cell_length_b   5.26653152
_cell_length_c   9.96981123
_cell_angle_alpha   90.00000000
_cell_angle_beta   90.00000000
_cell_angle_gamma   90.00000000
_symmetry_Int_Tables_number   1
_chemical_formula_structural   Ce2ReC2
_chemical_formula_sum   'Ce8 Re4 C8'
_cell_volume   346.09501654
_cell_formula_units_Z   4
loop_
 _symmetry_equiv_pos_site_id
 _symmetry_equiv_pos_as_xyz
  1  'x, y, z'
loop_
 _atom_site_type_symbol
 _atom_site_label
 _atom_site_symmetry_multiplicity
 _atom_site_fract_x
 _atom_site_fract_y
 _atom_site_fract_z
 _atom_site_occupancy
  Ce  Ce0  1  0.476502  0.250001  0.776888  1
  Ce  Ce1  1  0.023498  0.750001  0.276889  1
  Ce  Ce2  1  0.976502  0.250001  0.723112  1
  Ce  Ce3  1  0.523498  0.750001  0.223112  1
  Ce  Ce4  1  0.807539  0.250001  0.045797  1
  Ce  Ce5  1  0.692460  0.750001  0.545796  1
  Ce  Ce6  1  0.307541  0.250001  0.454204  1
  Ce  Ce7  1  0.192460  0.750001  0.954204  1
  Re  Re8  1  0.271034  0.250001  0.138121  1
  Re  Re9  1  0.228964  0.750001  0.638121  1
  Re  Re10  1  0.771036  0.250001  0.361879  1
  Re  Re11  1  0.728966  0.750001  0.861878  1
  C  C12  1  0.674567  0.250001  0.550564  1
  C  C13  1  0.825432  0.750001  0.050564  1
  C  C14  1  0.174567  0.250001  0.949436  1
  C  C15  1  0.325433  0.750001  0.449436  1
  C  C16  1  0.032283  0.250001  0.256606  1
  C  C17  1  0.467717  0.750001  0.756606  1
  C  C18  1  0.532283  0.250001  0.243393  1
  C  C19  1  0.967717  0.750001  0.743394  1
