# generated using pymatgen
data_Nd17Au36
_symmetry_space_group_name_H-M   'P 1'
_cell_length_a   9.46540725
_cell_length_b   16.12513402
_cell_length_c   16.12513402
_cell_angle_alpha   90.00000000
_cell_angle_beta   90.00000000
_cell_angle_gamma   90.00000000
_symmetry_Int_Tables_number   1
_chemical_formula_structural   Nd17Au36
_chemical_formula_sum   'Nd34 Au72'
_cell_volume   2461.19469302
_cell_formula_units_Z   2
loop_
 _symmetry_equiv_pos_site_id
 _symmetry_equiv_pos_as_xyz
  1  'x, y, z'
loop_
 _atom_site_type_symbol
 _atom_site_label
 _atom_site_symmetry_multiplicity
 _atom_site_fract_x
 _atom_site_fract_y
 _atom_site_fract_z
 _atom_site_occupancy
  Nd  Nd0  1  0.117113  0.250000  0.496651  1
  Nd  Nd1  1  0.386759  0.579795  0.920205  1
  Nd  Nd2  1  0.413041  0.750000  0.408802  1
  Nd  Nd3  1  0.703776  0.250000  0.250000  1
  Nd  Nd4  1  0.386759  0.920205  0.920205  1
  Nd  Nd5  1  0.882887  0.750000  0.996651  1
  Nd  Nd6  1  0.413041  0.408802  0.750000  1
  Nd  Nd7  1  0.413041  0.750000  0.091198  1
  Nd  Nd8  1  0.882887  0.503349  0.750000  1
  Nd  Nd9  1  0.296224  0.750000  0.750000  1
  Nd  Nd10  1  0.212732  0.250000  0.250000  1
  Nd  Nd11  1  0.117113  0.496651  0.250000  1
  Nd  Nd12  1  0.613241  0.420205  0.079795  1
  Nd  Nd13  1  0.117113  0.003349  0.250000  1
  Nd  Nd14  1  0.386759  0.920205  0.579795  1
  Nd  Nd15  1  0.386759  0.579795  0.579795  1
  Nd  Nd16  1  0.000000  0.750000  0.250000  1
  Nd  Nd17  1  0.117113  0.250000  0.003349  1
  Nd  Nd18  1  0.613241  0.079795  0.079795  1
  Nd  Nd19  1  0.882887  0.996651  0.750000  1
  Nd  Nd20  1  0.000000  0.500000  0.000000  1
  Nd  Nd21  1  0.586959  0.250000  0.908802  1
  Nd  Nd22  1  0.413041  0.091198  0.750000  1
  Nd  Nd23  1  0.613241  0.420205  0.420205  1
  Nd  Nd24  1  0.000000  0.250000  0.750000  1
  Nd  Nd25  1  0.586959  0.908802  0.250000  1
  Nd  Nd26  1  0.613241  0.079795  0.420205  1
  Nd  Nd27  1  0.000000  0.000000  0.000000  1
  Nd  Nd28  1  0.787268  0.750000  0.750000  1
  Nd  Nd29  1  0.586959  0.250000  0.591198  1
  Nd  Nd30  1  0.000000  0.500000  0.500000  1
  Nd  Nd31  1  0.000000  0.000000  0.500000  1
  Nd  Nd32  1  0.586959  0.591198  0.250000  1
  Nd  Nd33  1  0.882887  0.750000  0.503349  1
  Au  Au34  1  0.968595  0.146305  0.353695  1
  Au  Au35  1  0.632519  0.612271  0.049182  1
  Au  Au36  1  0.125776  0.088216  0.653844  1
  Au  Au37  1  0.874224  0.588216  0.346156  1
  Au  Au38  1  0.367481  0.387729  0.549182  1
  Au  Au39  1  0.225349  0.750000  0.558326  1
  Au  Au40  1  0.774651  0.441674  0.250000  1
  Au  Au41  1  0.464940  0.399062  0.250000  1
  Au  Au42  1  0.225349  0.558326  0.750000  1
  Au  Au43  1  0.125776  0.846156  0.088216  1
  Au  Au44  1  0.874224  0.346156  0.588216  1
  Au  Au45  1  0.632519  0.612271  0.450818  1
  Au  Au46  1  0.874224  0.153844  0.588216  1
  Au  Au47  1  0.125776  0.411784  0.653844  1
  Au  Au48  1  0.968595  0.353695  0.353695  1
  Au  Au49  1  0.710662  0.750000  0.338297  1
  Au  Au50  1  0.464940  0.100938  0.250000  1
  Au  Au51  1  0.125776  0.411784  0.846156  1
  Au  Au52  1  0.874224  0.153844  0.911784  1
  Au  Au53  1  0.874224  0.346156  0.911784  1
  Au  Au54  1  0.874224  0.588216  0.153844  1
  Au  Au55  1  0.774651  0.058326  0.250000  1
  Au  Au56  1  0.874224  0.911784  0.153844  1
  Au  Au57  1  0.710662  0.750000  0.161703  1
  Au  Au58  1  0.367481  0.950818  0.387729  1
  Au  Au59  1  0.968595  0.353695  0.146305  1
  Au  Au60  1  0.125776  0.653844  0.411784  1
  Au  Au61  1  0.367481  0.549182  0.112271  1
  Au  Au62  1  0.367481  0.387729  0.950818  1
  Au  Au63  1  0.125776  0.088216  0.846156  1
  Au  Au64  1  0.225349  0.750000  0.941674  1
  Au  Au65  1  0.710662  0.161703  0.750000  1
  Au  Au66  1  0.632519  0.887729  0.450818  1
  Au  Au67  1  0.125776  0.653844  0.088216  1
  Au  Au68  1  0.367481  0.112271  0.549182  1
  Au  Au69  1  0.225349  0.941674  0.750000  1
  Au  Au70  1  0.031405  0.853695  0.853695  1
  Au  Au71  1  0.632519  0.450818  0.887729  1
  Au  Au72  1  0.289338  0.250000  0.661703  1
  Au  Au73  1  0.632519  0.049182  0.887729  1
  Au  Au74  1  0.874224  0.911784  0.346156  1
  Au  Au75  1  0.632519  0.887729  0.049182  1
  Au  Au76  1  0.744193  0.887205  0.612795  1
  Au  Au77  1  0.774651  0.250000  0.058326  1
  Au  Au78  1  0.968595  0.146305  0.146305  1
  Au  Au79  1  0.289338  0.661703  0.250000  1
  Au  Au80  1  0.031405  0.646305  0.853695  1
  Au  Au81  1  0.535060  0.600938  0.750000  1
  Au  Au82  1  0.744193  0.612795  0.612795  1
  Au  Au83  1  0.535060  0.750000  0.600938  1
  Au  Au84  1  0.632519  0.450818  0.612271  1
  Au  Au85  1  0.464940  0.250000  0.399062  1
  Au  Au86  1  0.289338  0.250000  0.838297  1
  Au  Au87  1  0.367481  0.950818  0.112271  1
  Au  Au88  1  0.710662  0.338297  0.750000  1
  Au  Au89  1  0.464940  0.250000  0.100938  1
  Au  Au90  1  0.255807  0.387205  0.387205  1
  Au  Au91  1  0.535060  0.750000  0.899062  1
  Au  Au92  1  0.744193  0.612795  0.887205  1
  Au  Au93  1  0.031405  0.646305  0.646305  1
  Au  Au94  1  0.367481  0.549182  0.387729  1
  Au  Au95  1  0.255807  0.112795  0.112795  1
  Au  Au96  1  0.774651  0.250000  0.441674  1
  Au  Au97  1  0.125776  0.846156  0.411784  1
  Au  Au98  1  0.744193  0.887205  0.887205  1
  Au  Au99  1  0.289338  0.838297  0.250000  1
  Au  Au100  1  0.255807  0.112795  0.387205  1
  Au  Au101  1  0.632519  0.049182  0.612271  1
  Au  Au102  1  0.255807  0.387205  0.112795  1
  Au  Au103  1  0.031405  0.853695  0.646305  1
  Au  Au104  1  0.535060  0.899062  0.750000  1
  Au  Au105  1  0.367481  0.112271  0.950818  1
