# generated using pymatgen
data_Ce4Ru3
_symmetry_space_group_name_H-M   'P 1'
_cell_length_a   6.03041150
_cell_length_b   7.81031230
_cell_length_c   8.05296731
_cell_angle_alpha   112.46893888
_cell_angle_beta   103.94670070
_cell_angle_gamma   105.96630151
_symmetry_Int_Tables_number   1
_chemical_formula_structural   Ce4Ru3
_chemical_formula_sum   'Ce8 Ru6'
_cell_volume   310.34772161
_cell_formula_units_Z   2
loop_
 _symmetry_equiv_pos_site_id
 _symmetry_equiv_pos_as_xyz
  1  'x, y, z'
loop_
 _atom_site_type_symbol
 _atom_site_label
 _atom_site_symmetry_multiplicity
 _atom_site_fract_x
 _atom_site_fract_y
 _atom_site_fract_z
 _atom_site_occupancy
  Ce  Ce0  1  0.044309  0.878819  0.267356  1
  Ce  Ce1  1  0.625233  0.348662  1.000006  1
  Ce  Ce2  1  0.955691  0.121181  0.732644  1
  Ce  Ce3  1  0.223146  0.388615  0.267408  1
  Ce  Ce4  1  0.666194  0.166256  0.332397  1
  Ce  Ce5  1  0.374767  0.651338  -0.000006  1
  Ce  Ce6  1  0.333806  0.833744  0.667603  1
  Ce  Ce7  1  0.776854  0.611385  0.732592  1
  Ru  Ru8  1  0.562669  0.817886  0.397576  1
  Ru  Ru9  1  0.243699  0.993190  -0.000021  1
  Ru  Ru10  1  0.165176  0.420461  0.602419  1
  Ru  Ru11  1  0.834824  0.579539  0.397581  1
  Ru  Ru12  1  0.756301  0.006810  1.000021  1
  Ru  Ru13  1  0.437331  0.182114  0.602424  1
