# generated using pymatgen
data_Nd4Cu2O7
_symmetry_space_group_name_H-M   'P 1'
_cell_length_a   3.79788645
_cell_length_b   6.68362886
_cell_length_c   8.52856471
_cell_angle_alpha   108.60523497
_cell_angle_beta   90.00000000
_cell_angle_gamma   106.50616980
_symmetry_Int_Tables_number   1
_chemical_formula_structural   Nd4Cu2O7
_chemical_formula_sum   'Nd4 Cu2 O7'
_cell_volume   195.73590672
_cell_formula_units_Z   1
loop_
 _symmetry_equiv_pos_site_id
 _symmetry_equiv_pos_as_xyz
  1  'x, y, z'
loop_
 _atom_site_type_symbol
 _atom_site_label
 _atom_site_symmetry_multiplicity
 _atom_site_fract_x
 _atom_site_fract_y
 _atom_site_fract_z
 _atom_site_occupancy
  Nd  Nd0  1  0.340697  0.681394  0.680766  1
  Nd  Nd1  1  0.659303  0.318606  0.319234  1
  Nd  Nd2  1  0.642635  0.285271  0.833949  1
  Nd  Nd3  1  0.357365  0.714729  0.166051  1
  Cu  Cu4  1  0.000000  0.000000  0.000000  1
  Cu  Cu5  1  0.000000  0.000000  0.500000  1
  O  O6  1  0.010266  0.020533  0.291077  1
  O  O7  1  0.275148  0.550296  0.384727  1
  O  O8  1  0.500000  0.000000  0.000000  1
  O  O9  1  0.747939  0.495877  0.119905  1
  O  O10  1  0.724852  0.449704  0.615273  1
  O  O11  1  0.252061  0.504123  0.880095  1
  O  O12  1  0.989734  0.979467  0.708923  1
