# generated using pymatgen
data_Nd2MnNiO6
_symmetry_space_group_name_H-M   'P 1'
_cell_length_a   5.59806804
_cell_length_b   5.44420726
_cell_length_c   7.75018608
_cell_angle_alpha   89.96311193
_cell_angle_beta   90.00000000
_cell_angle_gamma   90.00000000
_symmetry_Int_Tables_number   1
_chemical_formula_structural   Nd2MnNiO6
_chemical_formula_sum   'Nd4 Mn2 Ni2 O12'
_cell_volume   236.20270292
_cell_formula_units_Z   2
loop_
 _symmetry_equiv_pos_site_id
 _symmetry_equiv_pos_as_xyz
  1  'x, y, z'
loop_
 _atom_site_type_symbol
 _atom_site_label
 _atom_site_symmetry_multiplicity
 _atom_site_fract_x
 _atom_site_fract_y
 _atom_site_fract_z
 _atom_site_occupancy
  O  O0  1  0.800159  0.784775  0.044169  1
  O  O1  1  0.300159  0.715225  0.455831  1
  O  O2  1  0.199841  0.215225  0.955831  1
  O  O3  1  0.699841  0.284775  0.544169  1
  O  O4  1  0.783997  0.801748  0.453490  1
  O  O5  1  0.283997  0.698252  0.046510  1
  O  O6  1  0.216003  0.198252  0.546510  1
  O  O7  1  0.716003  0.301748  0.953490  1
  O  O8  1  0.521763  0.914850  0.742270  1
  O  O9  1  0.021763  0.585150  0.757730  1
  O  O10  1  0.478237  0.085150  0.257730  1
  O  O11  1  0.978237  0.414850  0.242270  1
  Mn  Mn12  1  0.000000  0.500000  0.000000  1
  Mn  Mn13  1  0.500000  0.000000  0.500000  1
  Ni  Ni14  1  0.000000  0.500000  0.500000  1
  Ni  Ni15  1  0.500000  0.000000  0.000000  1
  Nd  Nd16  1  0.553801  0.512554  0.250603  1
  Nd  Nd17  1  0.053801  0.987446  0.249397  1
  Nd  Nd18  1  0.446199  0.487446  0.749397  1
  Nd  Nd19  1  0.946199  0.012554  0.750603  1
