# generated using pymatgen
data_NdMn2
_symmetry_space_group_name_H-M   'P 1'
_cell_length_a   5.55218906
_cell_length_b   5.54391584
_cell_length_c   8.36776265
_cell_angle_alpha   90.00000000
_cell_angle_beta   90.00000000
_cell_angle_gamma   120.04937740
_symmetry_Int_Tables_number   1
_chemical_formula_structural   NdMn2
_chemical_formula_sum   'Nd4 Mn8'
_cell_volume   222.94850109
_cell_formula_units_Z   4
loop_
 _symmetry_equiv_pos_site_id
 _symmetry_equiv_pos_as_xyz
  1  'x, y, z'
loop_
 _atom_site_type_symbol
 _atom_site_label
 _atom_site_symmetry_multiplicity
 _atom_site_fract_x
 _atom_site_fract_y
 _atom_site_fract_z
 _atom_site_occupancy
  Nd  Nd0  1  0.333041  0.666082  0.057829  1
  Nd  Nd1  1  0.666959  0.333918  0.942171  1
  Nd  Nd2  1  0.333041  0.666082  0.442171  1
  Nd  Nd3  1  0.666959  0.333918  0.557829  1
  Mn  Mn4  1  -0.000000  -0.000000  0.500000  1
  Mn  Mn5  1  -0.000000  -0.000000  -0.000000  1
  Mn  Mn6  1  0.837919  0.675839  0.250000  1
  Mn  Mn7  1  0.162081  0.324161  0.750000  1
  Mn  Mn8  1  0.322035  0.159666  0.250000  1
  Mn  Mn9  1  0.162369  0.840334  0.750000  1
  Mn  Mn10  1  0.677965  0.840334  0.750000  1
  Mn  Mn11  1  0.837631  0.159666  0.250000  1
