# generated using pymatgen
data_NdMo5O8
_symmetry_space_group_name_H-M   'P 1'
_cell_length_a   8.30403953
_cell_length_b   9.20630695
_cell_length_c   10.45456997
_cell_angle_alpha   90.00000000
_cell_angle_beta   111.18091250
_cell_angle_gamma   90.00000000
_symmetry_Int_Tables_number   1
_chemical_formula_structural   NdMo5O8
_chemical_formula_sum   'Nd4 Mo20 O32'
_cell_volume   745.25327626
_cell_formula_units_Z   4
loop_
 _symmetry_equiv_pos_site_id
 _symmetry_equiv_pos_as_xyz
  1  'x, y, z'
loop_
 _atom_site_type_symbol
 _atom_site_label
 _atom_site_symmetry_multiplicity
 _atom_site_fract_x
 _atom_site_fract_y
 _atom_site_fract_z
 _atom_site_occupancy
  O  O0  1  0.405487  0.500458  0.856542  1
  O  O1  1  0.594513  0.000458  0.643458  1
  O  O2  1  0.594513  0.499542  0.143458  1
  O  O3  1  0.405487  0.999542  0.356542  1
  O  O4  1  0.621107  0.708609  0.334475  1
  O  O5  1  0.378893  0.208609  0.165525  1
  O  O6  1  0.378893  0.291391  0.665525  1
  O  O7  1  0.621107  0.791391  0.834475  1
  O  O8  1  0.206128  0.727196  0.688837  1
  O  O9  1  0.793872  0.227196  0.811163  1
  O  O10  1  0.793872  0.272804  0.311163  1
  O  O11  1  0.206128  0.772804  0.188837  1
  O  O12  1  0.814928  0.733366  0.604829  1
  O  O13  1  0.185072  0.233366  0.895171  1
  O  O14  1  0.185072  0.266634  0.395171  1
  O  O15  1  0.814928  0.766634  0.104829  1
  O  O16  1  0.399171  0.753403  0.509912  1
  O  O17  1  0.600829  0.253403  0.990088  1
  O  O18  1  0.600829  0.246597  0.490088  1
  O  O19  1  0.399171  0.746597  0.009912  1
  O  O20  1  0.968226  0.497367  0.747014  1
  O  O21  1  0.031774  0.997367  0.752986  1
  O  O22  1  0.031774  0.502633  0.252986  1
  O  O23  1  0.968226  0.002633  0.247014  1
  O  O24  1  0.407651  0.011492  0.853309  1
  O  O25  1  0.592349  0.511492  0.646691  1
  O  O26  1  0.592349  0.988508  0.146691  1
  O  O27  1  0.407651  0.488508  0.353309  1
  O  O28  1  0.010817  0.761448  0.916139  1
  O  O29  1  0.989183  0.261448  0.583861  1
  O  O30  1  0.989183  0.238552  0.083861  1
  O  O31  1  0.010817  0.738552  0.416139  1
  Mo  Mo32  1  1.006712  0.622871  0.075273  1
  Mo  Mo33  1  -0.006712  0.122871  0.424727  1
  Mo  Mo34  1  -0.006712  0.377129  0.924727  1
  Mo  Mo35  1  1.006712  0.877129  0.575273  1
  Mo  Mo36  1  0.790603  0.644922  0.783825  1
  Mo  Mo37  1  0.209397  0.144922  0.716175  1
  Mo  Mo38  1  0.209397  0.355078  0.216175  1
  Mo  Mo39  1  0.790603  0.855078  0.283825  1
  Mo  Mo40  1  0.192172  0.626506  0.866340  1
  Mo  Mo41  1  0.807828  0.126506  0.633660  1
  Mo  Mo42  1  0.807828  0.373494  0.133660  1
  Mo  Mo43  1  0.192172  0.873494  0.366340  1
  Mo  Mo44  1  0.399015  0.622742  0.185175  1
  Mo  Mo45  1  0.600985  0.122742  0.314825  1
  Mo  Mo46  1  0.600985  0.377258  0.814825  1
  Mo  Mo47  1  0.399015  0.877258  0.685175  1
  Mo  Mo48  1  0.614902  0.637791  0.982184  1
  Mo  Mo49  1  0.385098  0.137791  0.517816  1
  Mo  Mo50  1  0.385098  0.362209  0.017816  1
  Mo  Mo51  1  0.614902  0.862209  0.482184  1
  Nd  Nd52  1  0.275217  0.979412  0.016394  1
  Nd  Nd53  1  0.724783  0.479412  0.483606  1
  Nd  Nd54  1  0.724783  0.020588  0.983606  1
  Nd  Nd55  1  0.275217  0.520588  0.516394  1
