# generated using pymatgen
data_Nd4Mo31O56
_symmetry_space_group_name_H-M   'P 1'
_cell_length_a   16.52592353
_cell_length_b   10.77278470
_cell_length_c   12.46970275
_cell_angle_alpha   64.69482278
_cell_angle_beta   49.01588714
_cell_angle_gamma   49.47044585
_symmetry_Int_Tables_number   1
_chemical_formula_structural   Nd4Mo31O56
_chemical_formula_sum   'Nd4 Mo31 O56'
_cell_volume   1273.75940898
_cell_formula_units_Z   1
loop_
 _symmetry_equiv_pos_site_id
 _symmetry_equiv_pos_as_xyz
  1  'x, y, z'
loop_
 _atom_site_type_symbol
 _atom_site_label
 _atom_site_symmetry_multiplicity
 _atom_site_fract_x
 _atom_site_fract_y
 _atom_site_fract_z
 _atom_site_occupancy
  Nd  Nd0  1  0.300895  0.980474  0.495029  1
  Nd  Nd1  1  0.553775  0.473525  0.988923  1
  Nd  Nd2  1  0.798761  0.980706  0.507748  1
  Nd  Nd3  1  0.032918  0.443404  0.014454  1
  Mo  Mo4  1  0.007200  0.010745  0.141162  1
  Mo  Mo5  1  0.024788  0.117357  0.372431  1
  Mo  Mo6  1  0.250682  0.246745  0.147555  1
  Mo  Mo7  1  0.141318  0.621763  0.132206  1
  Mo  Mo8  1  0.015207  0.229667  0.871428  1
  Mo  Mo9  1  0.502353  0.008284  0.143779  1
  Mo  Mo10  1  0.001980  0.599784  0.651783  1
  Mo  Mo11  1  0.255661  0.373597  0.375272  1
  Mo  Mo12  1  0.155499  0.739139  0.353767  1
  Mo  Mo13  1  0.256074  0.333510  0.644800  1
  Mo  Mo14  1  0.526469  0.119769  0.371246  1
  Mo  Mo15  1  0.130220  0.735902  0.628075  1
  Mo  Mo16  1  0.410100  0.505767  0.348769  1
  Mo  Mo17  1  0.385993  0.865442  0.133611  1
  Mo  Mo18  1  0.400503  0.099059  0.856626  1
  Mo  Mo19  1  0.390453  0.459167  0.635569  1
  Mo  Mo20  1  0.756251  0.258247  0.140372  1
  Mo  Mo21  1  0.151552  0.834100  0.855578  1
  Mo  Mo22  1  0.510462  0.238136  0.875189  1
  Mo  Mo23  1  0.506360  0.599281  0.642144  1
  Mo  Mo24  1  0.277896  0.958332  0.869353  1
  Mo  Mo25  1  0.765367  0.368895  0.368925  1
  Mo  Mo26  1  0.656928  0.742374  0.337189  1
  Mo  Mo27  1  0.754731  0.333167  0.644689  1
  Mo  Mo28  1  0.635115  0.740684  0.621478  1
  Mo  Mo29  1  0.898406  0.510026  0.357741  1
  Mo  Mo30  1  0.883323  0.874824  0.129994  1
  Mo  Mo31  1  0.905348  0.094660  0.851822  1
  Mo  Mo32  1  0.893641  0.457177  0.632339  1
  Mo  Mo33  1  0.649723  0.817068  0.869576  1
  Mo  Mo34  1  0.769797  0.963479  0.874468  1
  O  O35  1  0.082344  0.166118  0.990991  1
  O  O36  1  0.221444  0.276625  -0.000064  1
  O  O37  1  0.207412  0.075556  0.242369  1
  O  O38  1  0.079922  0.457962  0.248910  1
  O  O39  1  0.316574  0.392904  0.034152  1
  O  O40  1  0.075496  0.426103  0.532398  1
  O  O41  1  0.303709  0.188842  0.289742  1
  O  O42  1  0.188182  0.813069  0.000796  1
  O  O43  1  0.201205  0.015549  0.747204  1
  O  O44  1  0.208129  0.561689  0.255479  1
  O  O45  1  0.059128  0.409626  0.786795  1
  O  O46  1  0.072918  0.954558  0.260933  1
  O  O47  1  0.328186  0.179927  0.494049  1
  O  O48  1  0.578191  0.161685  0.001806  1
  O  O49  1  0.435677  0.343289  0.267819  1
  O  O50  1  0.098894  0.892990  0.482910  1
  O  O51  1  0.336825  0.125215  0.747584  1
  O  O52  1  0.353624  0.677386  0.206587  1
  O  O53  1  0.194929  0.518778  0.748337  1
  O  O54  1  0.733447  0.276763  0.991371  1
  O  O55  1  0.438397  0.312835  0.498832  1
  O  O56  1  0.091022  0.908817  0.718266  1
  O  O57  1  0.067498  0.693905  0.006412  1
  O  O58  1  0.711158  0.081129  0.242922  1
  O  O59  1  0.320941  0.650258  0.502709  1
  O  O60  1  0.576668  0.461359  0.218091  1
  O  O61  1  0.453557  0.257273  0.754686  1
  O  O62  1  0.416175  0.868306  0.262119  1
  O  O63  1  0.333186  0.632271  0.745771  1
  O  O64  1  0.844955  0.376276  0.021370  1
  O  O65  1  0.571189  0.432617  0.532188  1
  O  O66  1  0.808575  0.188716  0.282146  1
  O  O67  1  0.476932  0.776449  0.496635  1
  O  O68  1  0.680772  0.827061  0.992662  1
  O  O69  1  0.697348  0.003671  0.755346  1
  O  O70  1  0.744969  0.564028  0.232231  1
  O  O71  1  0.556225  0.418799  0.787421  1
  O  O72  1  0.572526  0.960412  0.257640  1
  O  O73  1  0.827840  0.171833  0.502233  1
  O  O74  1  0.466101  0.755781  0.745972  1
  O  O75  1  0.955146  0.329990  0.249943  1
  O  O76  1  0.609695  0.887377  0.469263  1
  O  O77  1  0.345714  0.938573  0.979090  1
  O  O78  1  0.826347  0.133341  0.758039  1
  O  O79  1  0.851844  0.687228  0.207674  1
  O  O80  1  0.698500  0.517756  0.746400  1
  O  O81  1  0.935861  0.311292  0.501938  1
  O  O82  1  0.591604  0.906297  0.728634  1
  O  O83  1  0.562816  0.693864  0.986079  1
  O  O84  1  0.820307  0.661282  0.510656  1
  O  O85  1  0.964315  0.251544  0.750175  1
  O  O86  1  0.945095  0.844118  0.248658  1
  O  O87  1  0.831992  0.623171  0.754440  1
  O  O88  1  0.972633  0.770548  0.509407  1
  O  O89  1  0.959779  0.754509  0.754540  1
  O  O90  1  0.848736  0.936954  0.977875  1
