# generated using pymatgen
data_Nd2Mo2O7
_symmetry_space_group_name_H-M   'P 1'
_cell_length_a   7.52229959
_cell_length_b   7.51163810
_cell_length_c   7.51870636
_cell_angle_alpha   59.94059917
_cell_angle_beta   59.97963666
_cell_angle_gamma   60.05693468
_symmetry_Int_Tables_number   1
_chemical_formula_structural   Nd2Mo2O7
_chemical_formula_sum   'Nd4 Mo4 O14'
_cell_volume   300.35684956
_cell_formula_units_Z   2
loop_
 _symmetry_equiv_pos_site_id
 _symmetry_equiv_pos_as_xyz
  1  'x, y, z'
loop_
 _atom_site_type_symbol
 _atom_site_label
 _atom_site_symmetry_multiplicity
 _atom_site_fract_x
 _atom_site_fract_y
 _atom_site_fract_z
 _atom_site_occupancy
  Nd  Nd0  1  0.000000  0.500000  0.500000  1
  Nd  Nd1  1  0.500000  0.500000  0.000000  1
  Nd  Nd2  1  0.500000  -0.000000  0.500000  1
  Nd  Nd3  1  0.500000  0.500000  0.500001  1
  Mo  Mo4  1  0.000000  -0.000000  0.000000  1
  Mo  Mo5  1  0.000000  0.500000  0.000000  1
  Mo  Mo6  1  0.000000  -0.000000  0.500000  1
  Mo  Mo7  1  0.500000  -0.000000  0.000000  1
  O  O8  1  0.671858  0.089641  0.660512  1
  O  O9  1  0.906211  0.329514  0.925925  1
  O  O10  1  0.666306  0.667449  0.084811  1
  O  O11  1  0.918108  0.915700  0.332440  1
  O  O12  1  0.660962  0.076237  0.091851  1
  O  O13  1  0.923683  0.338771  0.328600  1
  O  O14  1  0.625619  0.624615  0.624672  1
  O  O15  1  0.339038  0.923763  0.908150  1
  O  O16  1  0.328142  0.910359  0.339487  1
  O  O17  1  0.333694  0.332551  0.915189  1
  O  O18  1  0.076317  0.661230  0.671400  1
  O  O19  1  0.374382  0.375386  0.375328  1
  O  O20  1  0.081892  0.084300  0.667561  1
  O  O21  1  0.093790  0.670487  0.074074  1
