# generated using pymatgen
data_Nd2(MoO4)3
_symmetry_space_group_name_H-M   'P 1'
_cell_length_a   16.12875112
_cell_length_b   12.00488876
_cell_length_c   7.02406784
_cell_angle_alpha   80.13366018
_cell_angle_beta   67.46849344
_cell_angle_gamma   26.57409729
_symmetry_Int_Tables_number   1
_chemical_formula_structural   Nd2(MoO4)3
_chemical_formula_sum   'Nd4 Mo6 O24'
_cell_volume   511.37128007
_cell_formula_units_Z   2
loop_
 _symmetry_equiv_pos_site_id
 _symmetry_equiv_pos_as_xyz
  1  'x, y, z'
loop_
 _atom_site_type_symbol
 _atom_site_label
 _atom_site_symmetry_multiplicity
 _atom_site_fract_x
 _atom_site_fract_y
 _atom_site_fract_z
 _atom_site_occupancy
  Nd  Nd0  1  0.123203  0.132554  0.745727  1
  Nd  Nd1  1  0.463622  0.114394  0.747285  1
  Nd  Nd2  1  0.210130  0.867446  0.254273  1
  Nd  Nd3  1  0.869711  0.885606  0.252715  1
  Mo  Mo4  1  0.041202  0.375215  0.247994  1
  Mo  Mo5  1  0.375057  0.365913  0.254220  1
  Mo  Mo6  1  0.292132  0.624785  0.752006  1
  Mo  Mo7  1  0.705388  0.385917  0.250768  1
  Mo  Mo8  1  0.627945  0.614083  0.749232  1
  Mo  Mo9  1  0.958276  0.634087  0.745780  1
  O  O10  1  0.127815  0.154657  0.091148  1
  O  O11  1  0.152372  0.230923  0.422941  1
  O  O12  1  0.110825  0.439377  0.089161  1
  O  O13  1  0.248377  0.318765  0.591713  1
  O  O14  1  0.484878  0.141530  0.056708  1
  O  O15  1  0.084957  0.681235  0.408287  1
  O  O16  1  0.516035  0.194304  0.414779  1
  O  O17  1  0.410919  0.466879  0.110842  1
  O  O18  1  0.222509  0.560623  0.910839  1
  O  O19  1  0.180961  0.769077  0.577059  1
  O  O20  1  0.578830  0.304765  0.574242  1
  O  O21  1  0.812590  0.142100  0.106438  1
  O  O22  1  0.205519  0.845343  0.908852  1
  O  O23  1  0.403607  0.719844  0.412963  1
  O  O24  1  0.840159  0.226301  0.405097  1
  O  O25  1  0.794819  0.410599  0.053514  1
  O  O26  1  0.538514  0.589401  0.946486  1
  O  O27  1  0.493175  0.773699  0.594903  1
  O  O28  1  0.929726  0.280156  0.587037  1
  O  O29  1  0.520743  0.857900  0.893562  1
  O  O30  1  0.754503  0.695235  0.425758  1
  O  O31  1  0.922414  0.533121  0.889158  1
  O  O32  1  0.817298  0.805696  0.585221  1
  O  O33  1  0.848455  0.858470  0.943292  1
