# generated using pymatgen
data_Nd2NiB10
_symmetry_space_group_name_H-M   'P 1'
_cell_length_a   4.19556700
_cell_length_b   5.63722034
_cell_length_c   11.23441439
_cell_angle_alpha   90.00000000
_cell_angle_beta   90.00000000
_cell_angle_gamma   90.00000000
_symmetry_Int_Tables_number   1
_chemical_formula_structural   Nd2NiB10
_chemical_formula_sum   'Nd4 Ni2 B20'
_cell_volume   265.70890535
_cell_formula_units_Z   2
loop_
 _symmetry_equiv_pos_site_id
 _symmetry_equiv_pos_as_xyz
  1  'x, y, z'
loop_
 _atom_site_type_symbol
 _atom_site_label
 _atom_site_symmetry_multiplicity
 _atom_site_fract_x
 _atom_site_fract_y
 _atom_site_fract_z
 _atom_site_occupancy
  B  B0  1  0.000000  0.125587  0.541369  1
  B  B1  1  0.000000  0.874413  0.458631  1
  B  B2  1  0.000000  0.625587  0.958631  1
  B  B3  1  0.000000  0.374413  0.041369  1
  B  B4  1  0.000000  0.155225  0.697642  1
  B  B5  1  0.000000  0.844775  0.302358  1
  B  B6  1  0.300190  0.203549  0.114370  1
  B  B7  1  0.300190  0.796451  0.885630  1
  B  B8  1  0.699810  0.703549  0.385630  1
  B  B9  1  0.699810  0.296451  0.614370  1
  B  B10  1  0.699810  0.796451  0.885630  1
  B  B11  1  0.699810  0.203549  0.114370  1
  B  B12  1  0.300190  0.296451  0.614370  1
  B  B13  1  0.300190  0.703549  0.385630  1
  B  B14  1  0.000000  0.035591  0.187468  1
  B  B15  1  0.000000  0.964409  0.812532  1
  B  B16  1  0.000000  0.535591  0.312532  1
  B  B17  1  0.000000  0.464409  0.687468  1
  B  B18  1  0.000000  0.344775  0.197642  1
  B  B19  1  0.000000  0.655225  0.802358  1
  Ni  Ni20  1  0.000000  0.500000  0.500000  1
  Ni  Ni21  1  0.000000  0.000000  0.000000  1
  Nd  Nd22  1  0.500000  0.308952  0.863207  1
  Nd  Nd23  1  0.500000  0.691048  0.136793  1
  Nd  Nd24  1  0.500000  0.808952  0.636793  1
  Nd  Nd25  1  0.500000  0.191048  0.363207  1
