# generated using pymatgen
data_Nd2NiO4
_symmetry_space_group_name_H-M   'P 1'
_cell_length_a   5.68211585
_cell_length_b   5.42217691
_cell_length_c   6.66813516
_cell_angle_alpha   113.98978546
_cell_angle_beta   90.00000000
_cell_angle_gamma   90.00000000
_symmetry_Int_Tables_number   1
_chemical_formula_structural   Nd2NiO4
_chemical_formula_sum   'Nd4 Ni2 O8'
_cell_volume   187.69503640
_cell_formula_units_Z   2
loop_
 _symmetry_equiv_pos_site_id
 _symmetry_equiv_pos_as_xyz
  1  'x, y, z'
loop_
 _atom_site_type_symbol
 _atom_site_label
 _atom_site_symmetry_multiplicity
 _atom_site_fract_x
 _atom_site_fract_y
 _atom_site_fract_z
 _atom_site_occupancy
  Nd  Nd0  1  0.517373  0.136951  0.273904  1
  Nd  Nd1  1  0.017373  0.363049  0.726096  1
  Nd  Nd2  1  0.982627  0.636951  0.273904  1
  Nd  Nd3  1  0.482627  0.863049  0.726096  1
  Ni  Ni4  1  0.000000  0.000000  0.000000  1
  Ni  Ni5  1  0.500000  0.500000  0.000000  1
  O  O6  1  0.750000  0.229458  0.958915  1
  O  O7  1  0.929154  0.179735  0.359469  1
  O  O8  1  0.250000  0.270542  0.041085  1
  O  O9  1  0.429154  0.320265  0.640531  1
  O  O10  1  0.750000  0.729458  0.958915  1
  O  O11  1  0.070846  0.820265  0.640531  1
  O  O12  1  0.250000  0.770542  0.041085  1
  O  O13  1  0.570846  0.679735  0.359469  1
