# generated using pymatgen
data_Nd4Ni3O8
_symmetry_space_group_name_H-M   'P 1'
_cell_length_a   3.96274962
_cell_length_b   3.96274962
_cell_length_c   13.01573928
_cell_angle_alpha   98.75613071
_cell_angle_beta   98.75613075
_cell_angle_gamma   90.00000001
_symmetry_Int_Tables_number   1
_chemical_formula_structural   Nd4Ni3O8
_chemical_formula_sum   'Nd4 Ni3 O8'
_cell_volume   199.59846667
_cell_formula_units_Z   1
loop_
 _symmetry_equiv_pos_site_id
 _symmetry_equiv_pos_as_xyz
  1  'x, y, z'
loop_
 _atom_site_type_symbol
 _atom_site_label
 _atom_site_symmetry_multiplicity
 _atom_site_fract_x
 _atom_site_fract_y
 _atom_site_fract_z
 _atom_site_occupancy
  O  O0  1  0.250000  0.750000  0.500000  1
  O  O1  1  0.749999  0.250001  0.500000  1
  O  O2  1  0.874613  0.374613  0.749228  1
  O  O3  1  0.374614  0.874613  0.749228  1
  O  O4  1  0.125386  0.625385  0.250772  1
  O  O5  1  0.625385  0.125385  0.250772  1
  O  O6  1  0.000001  0.500000  1.000000  1
  O  O7  1  0.500000  0.000000  1.000000  1
  Ni  Ni8  1  0.875070  0.875072  0.750143  1
  Ni  Ni9  1  0.124929  0.124929  0.249857  1
  Ni  Ni10  1  0.000000  0.000000  0.000000  1
  Nd  Nd11  1  0.701620  0.701619  0.403241  1
  Nd  Nd12  1  0.298379  0.298379  0.596759  1
  Nd  Nd13  1  0.566310  0.566309  0.132619  1
  Nd  Nd14  1  0.433692  0.433692  0.867382  1
