# generated using pymatgen
data_Nd2Pt2O7
_symmetry_space_group_name_H-M   'P 1'
_cell_length_a   7.43892068
_cell_length_b   7.43892068
_cell_length_c   7.43892068
_cell_angle_alpha   60.00000000
_cell_angle_beta   60.00000002
_cell_angle_gamma   59.99999999
_symmetry_Int_Tables_number   1
_chemical_formula_structural   Nd2Pt2O7
_chemical_formula_sum   'Nd4 Pt4 O14'
_cell_volume   291.08162191
_cell_formula_units_Z   2
loop_
 _symmetry_equiv_pos_site_id
 _symmetry_equiv_pos_as_xyz
  1  'x, y, z'
loop_
 _atom_site_type_symbol
 _atom_site_label
 _atom_site_symmetry_multiplicity
 _atom_site_fract_x
 _atom_site_fract_y
 _atom_site_fract_z
 _atom_site_occupancy
  O  O0  1  0.875000  0.875000  0.875000  1
  O  O1  1  0.125000  0.125000  0.125000  1
  O  O2  1  0.414474  0.835526  0.835526  1
  O  O3  1  0.164474  0.585526  0.585526  1
  O  O4  1  0.835526  0.414474  0.835526  1
  O  O5  1  0.835526  0.835526  0.414474  1
  O  O6  1  0.414474  0.414474  0.835526  1
  O  O7  1  0.414474  0.835526  0.414474  1
  O  O8  1  0.835526  0.414474  0.414474  1
  O  O9  1  0.585526  0.585526  0.164474  1
  O  O10  1  0.164474  0.164474  0.585526  1
  O  O11  1  0.585526  0.164474  0.164474  1
  O  O12  1  0.585526  0.164474  0.585526  1
  O  O13  1  0.164474  0.585526  0.164474  1
  Nd  Nd14  1  0.000000  0.500000  0.000000  1
  Nd  Nd15  1  0.500000  0.000000  0.000000  1
  Nd  Nd16  1  0.000000  0.000000  0.500000  1
  Nd  Nd17  1  0.000000  0.000000  0.000000  1
  Pt  Pt18  1  0.500000  0.000000  0.500000  1
  Pt  Pt19  1  0.000000  0.500000  0.500000  1
  Pt  Pt20  1  0.500000  0.500000  0.000000  1
  Pt  Pt21  1  0.500000  0.500000  0.500000  1
