# generated using pymatgen
data_NdTaO4
_symmetry_space_group_name_H-M   'P 1'
_cell_length_a   5.51757452
_cell_length_b   7.70865135
_cell_length_c   7.77150161
_cell_angle_alpha   99.96072839
_cell_angle_beta   90.00000000
_cell_angle_gamma   90.00000000
_symmetry_Int_Tables_number   1
_chemical_formula_structural   NdTaO4
_chemical_formula_sum   'Nd4 Ta4 O16'
_cell_volume   325.56326406
_cell_formula_units_Z   4
loop_
 _symmetry_equiv_pos_site_id
 _symmetry_equiv_pos_as_xyz
  1  'x, y, z'
loop_
 _atom_site_type_symbol
 _atom_site_label
 _atom_site_symmetry_multiplicity
 _atom_site_fract_x
 _atom_site_fract_y
 _atom_site_fract_z
 _atom_site_occupancy
  O  O0  1  0.505715  0.671157  0.128448  1
  O  O1  1  0.005715  0.328843  0.371552  1
  O  O2  1  0.494285  0.328843  0.871552  1
  O  O3  1  0.994285  0.671157  0.628448  1
  O  O4  1  0.984747  0.616283  0.170770  1
  O  O5  1  0.484747  0.383717  0.329230  1
  O  O6  1  0.015253  0.383717  0.829230  1
  O  O7  1  0.515253  0.616283  0.670770  1
  O  O8  1  0.851458  0.831860  0.943400  1
  O  O9  1  0.351458  0.168140  0.556600  1
  O  O10  1  0.148542  0.168140  0.056600  1
  O  O11  1  0.648542  0.831860  0.443400  1
  O  O12  1  0.409422  0.941819  0.798110  1
  O  O13  1  0.909422  0.058181  0.701890  1
  O  O14  1  0.590578  0.058181  0.201890  1
  O  O15  1  0.090578  0.941819  0.298110  1
  Nd  Nd16  1  0.220778  0.650612  0.897002  1
  Nd  Nd17  1  0.720778  0.349388  0.602998  1
  Nd  Nd18  1  0.779222  0.349388  0.102998  1
  Nd  Nd19  1  0.279222  0.650612  0.397002  1
  Ta  Ta20  1  0.732304  0.835021  0.692528  1
  Ta  Ta21  1  0.232304  0.164979  0.807472  1
  Ta  Ta22  1  0.267696  0.164979  0.307472  1
  Ta  Ta23  1  0.767696  0.835021  0.192528  1
