# generated using pymatgen
data_Nd2Ti4O11
_symmetry_space_group_name_H-M   'P 1'
_cell_length_a   5.12813400
_cell_length_b   7.31869456
_cell_length_c   12.71171835
_cell_angle_alpha   74.34657491
_cell_angle_beta   78.28789106
_cell_angle_gamma   69.46079342
_symmetry_Int_Tables_number   1
_chemical_formula_structural   Nd2Ti4O11
_chemical_formula_sum   'Nd4 Ti8 O22'
_cell_volume   427.07385808
_cell_formula_units_Z   2
loop_
 _symmetry_equiv_pos_site_id
 _symmetry_equiv_pos_as_xyz
  1  'x, y, z'
loop_
 _atom_site_type_symbol
 _atom_site_label
 _atom_site_symmetry_multiplicity
 _atom_site_fract_x
 _atom_site_fract_y
 _atom_site_fract_z
 _atom_site_occupancy
  Nd  Nd0  1  0.805052  0.301847  0.094014  1
  Nd  Nd1  1  0.797664  0.803145  0.594162  1
  Nd  Nd2  1  0.192687  0.697819  0.904995  1
  Nd  Nd3  1  0.203857  0.199145  0.405399  1
  Ti  Ti4  1  0.163563  0.590810  0.188907  1
  Ti  Ti5  1  0.521953  0.659013  0.402818  1
  Ti  Ti6  1  0.948744  0.909492  0.309251  1
  Ti  Ti7  1  0.834705  0.411048  0.809351  1
  Ti  Ti8  1  0.420490  0.157927  0.901247  1
  Ti  Ti9  1  0.478216  0.343731  0.596687  1
  Ti  Ti10  1  0.053879  0.091229  0.689769  1
  Ti  Ti11  1  0.578761  0.843723  0.096810  1
  O  O12  1  0.383236  0.340847  0.223178  1
  O  O13  1  0.073675  0.414752  0.902076  1
  O  O14  1  0.715472  0.918853  0.942677  1
  O  O15  1  0.056320  0.839682  0.722003  1
  O  O16  1  0.901643  0.579514  0.331792  1
  O  O17  1  0.138013  0.839273  0.438662  1
  O  O18  1  0.284916  0.082871  0.055395  1
  O  O19  1  0.610979  0.915466  0.402166  1
  O  O20  1  0.096863  0.423586  0.666356  1
  O  O21  1  0.344822  0.750265  0.249019  1
  O  O22  1  0.862617  0.163609  0.560650  1
  O  O23  1  0.413481  0.662393  0.060007  1
  O  O24  1  0.925911  0.585000  0.096091  1
  O  O25  1  0.950923  0.159943  0.275476  1
  O  O26  1  0.187081  0.080006  0.831495  1
  O  O27  1  0.390380  0.087220  0.596662  1
  O  O28  1  0.578597  0.582858  0.555802  1
  O  O29  1  0.585322  0.339023  0.938242  1
  O  O30  1  0.421554  0.419965  0.443765  1
  O  O31  1  0.655085  0.250932  0.749709  1
  O  O32  1  0.812532  0.921316  0.166586  1
  O  O33  1  0.617807  0.662568  0.776749  1
