# generated using pymatgen
data_Nd2(WO4)3
_symmetry_space_group_name_H-M   'P 1'
_cell_length_a   7.10546043
_cell_length_b   7.10546044
_cell_length_c   11.75249470
_cell_angle_alpha   101.11420411
_cell_angle_beta   101.11420408
_cell_angle_gamma   111.92587145
_symmetry_Int_Tables_number   1
_chemical_formula_structural   Nd2(WO4)3
_chemical_formula_sum   'Nd4 W6 O24'
_cell_volume   516.76411795
_cell_formula_units_Z   2
loop_
 _symmetry_equiv_pos_site_id
 _symmetry_equiv_pos_as_xyz
  1  'x, y, z'
loop_
 _atom_site_type_symbol
 _atom_site_label
 _atom_site_symmetry_multiplicity
 _atom_site_fract_x
 _atom_site_fract_y
 _atom_site_fract_z
 _atom_site_occupancy
  O  O0  1  0.900165  0.325150  0.427973  1
  O  O1  1  0.674850  0.099835  0.072027  1
  O  O2  1  0.099835  0.674850  0.572027  1
  O  O3  1  0.325150  0.900165  0.927973  1
  O  O4  1  0.671688  0.602114  0.440433  1
  O  O5  1  0.397886  0.328312  0.059567  1
  O  O6  1  0.328312  0.397886  0.559567  1
  O  O7  1  0.602114  0.671688  0.940433  1
  O  O8  1  0.194492  0.348068  0.304360  1
  O  O9  1  0.651932  0.805508  0.195640  1
  O  O10  1  0.948579  0.028875  0.609650  1
  O  O11  1  0.971125  0.051421  0.890350  1
  O  O12  1  0.051421  0.971125  0.390350  1
  O  O13  1  0.028875  0.948579  0.109650  1
  O  O14  1  0.625182  0.227901  0.539122  1
  O  O15  1  0.772099  0.374818  0.960878  1
  O  O16  1  0.374818  0.772099  0.460878  1
  O  O17  1  0.227901  0.625182  0.039122  1
  O  O18  1  0.600931  0.011830  0.717730  1
  O  O19  1  0.988170  0.399069  0.782270  1
  O  O20  1  0.399069  0.988170  0.282270  1
  O  O21  1  0.011830  0.600931  0.217730  1
  O  O22  1  0.348068  0.194492  0.804360  1
  O  O23  1  0.805508  0.651932  0.695640  1
  Nd  Nd24  1  0.692949  0.946330  0.405808  1
  Nd  Nd25  1  0.053670  0.307051  0.094192  1
  Nd  Nd26  1  0.307051  0.053670  0.594192  1
  Nd  Nd27  1  0.946330  0.692949  0.905808  1
  W  W28  1  0.799441  0.507579  0.547032  1
  W  W29  1  0.492421  0.200559  0.952968  1
  W  W30  1  0.507579  0.799441  0.047032  1
  W  W31  1  0.200559  0.492421  0.452968  1
  W  W32  1  0.884136  0.115864  0.750000  1
  W  W33  1  0.115864  0.884136  0.250000  1
