# generated using pymatgen
data_NdZrO3
_symmetry_space_group_name_H-M   'P 1'
_cell_length_a   7.61752466
_cell_length_b   7.56672185
_cell_length_c   7.61752466
_cell_angle_alpha   60.22037130
_cell_angle_beta   89.23829170
_cell_angle_gamma   119.77962870
_symmetry_Int_Tables_number   1
_chemical_formula_structural   NdZrO3
_chemical_formula_sum   'Nd4 Zr4 O12'
_cell_volume   310.44318465
_cell_formula_units_Z   4
loop_
 _symmetry_equiv_pos_site_id
 _symmetry_equiv_pos_as_xyz
  1  'x, y, z'
loop_
 _atom_site_type_symbol
 _atom_site_label
 _atom_site_symmetry_multiplicity
 _atom_site_fract_x
 _atom_site_fract_y
 _atom_site_fract_z
 _atom_site_occupancy
  Nd  Nd0  1  0.991347  0.008945  0.991347  1
  Nd  Nd1  1  0.499707  0.491055  0.017598  1
  Nd  Nd2  1  0.017598  0.008945  0.499707  1
  Nd  Nd3  1  0.991347  0.491055  0.991347  1
  Zr  Zr4  1  0.499504  0.994946  0.009613  1
  Zr  Zr5  1  0.495441  0.994946  0.495441  1
  Zr  Zr6  1  0.495441  0.505054  0.495441  1
  Zr  Zr7  1  0.009613  0.505054  0.499504  1
  O  O8  1  0.596377  0.192754  0.153623  1
  O  O9  1  0.832492  0.250000  0.417508  1
  O  O10  1  0.409407  0.250000  0.409407  1
  O  O11  1  0.125000  0.250000  0.125000  1
  O  O12  1  0.840593  0.250000  0.840593  1
  O  O13  1  0.832492  0.664985  0.417508  1
  O  O14  1  0.596377  0.750000  0.153623  1
  O  O15  1  0.417508  0.250000  0.832492  1
  O  O16  1  0.153623  0.307246  0.596377  1
  O  O17  1  0.875000  0.750000  0.875000  1
  O  O18  1  0.153623  0.750000  0.596377  1
  O  O19  1  0.417508  0.835015  0.832492  1
