# generated using pymatgen
data_Nd5Cu5O13
_symmetry_space_group_name_H-M   'P 1'
_cell_length_a   3.83474508
_cell_length_b   8.48873810
_cell_length_c   8.46410004
_cell_angle_alpha   90.17737612
_cell_angle_beta   90.00000000
_cell_angle_gamma   90.00000000
_symmetry_Int_Tables_number   1
_chemical_formula_structural   Nd5Cu5O13
_chemical_formula_sum   'Nd5 Cu5 O13'
_cell_volume   275.52330547
_cell_formula_units_Z   1
loop_
 _symmetry_equiv_pos_site_id
 _symmetry_equiv_pos_as_xyz
  1  'x, y, z'
loop_
 _atom_site_type_symbol
 _atom_site_label
 _atom_site_symmetry_multiplicity
 _atom_site_fract_x
 _atom_site_fract_y
 _atom_site_fract_z
 _atom_site_occupancy
  Nd  Nd0  1  0.500000  0.153363  0.263909  1
  Nd  Nd1  1  0.500000  0.735994  0.151933  1
  Nd  Nd2  1  0.500000  0.500000  0.500000  1
  Nd  Nd3  1  0.500000  0.846637  0.736091  1
  Nd  Nd4  1  0.500000  0.264006  0.848067  1
  Cu  Cu5  1  0.000000  0.566673  0.840607  1
  Cu  Cu6  1  0.000000  0.433327  0.159393  1
  Cu  Cu7  1  0.000000  0.837576  0.433899  1
  Cu  Cu8  1  0.000000  0.162424  0.566101  1
  Cu  Cu9  1  0.000000  0.000000  0.000000  1
  O  O10  1  0.000000  0.299963  0.388277  1
  O  O11  1  0.000000  0.759733  0.958643  1
  O  O12  1  0.500000  0.566489  0.820867  1
  O  O13  1  0.000000  0.700037  0.611723  1
  O  O14  1  0.500000  0.183149  0.564932  1
  O  O15  1  0.000000  0.240267  0.041357  1
  O  O16  1  0.000000  0.038131  0.755122  1
  O  O17  1  0.000000  0.385738  0.707471  1
  O  O18  1  0.000000  0.614262  0.292529  1
  O  O19  1  0.500000  0.816851  0.435068  1
  O  O20  1  0.000000  0.961869  0.244878  1
  O  O21  1  0.500000  0.000000  0.000000  1
  O  O22  1  0.500000  0.433511  0.179133  1
