# generated using pymatgen
data_Ce9YO20
_symmetry_space_group_name_H-M   'P 1'
_cell_length_a   7.71143587
_cell_length_b   19.30864113
_cell_length_c   10.21513736
_cell_angle_alpha   19.07174104
_cell_angle_beta   55.46745306
_cell_angle_gamma   59.94443371
_symmetry_Int_Tables_number   1
_chemical_formula_structural   Ce9YO20
_chemical_formula_sum   'Ce9 Y1 O20'
_cell_volume   405.96435829
_cell_formula_units_Z   1
loop_
 _symmetry_equiv_pos_site_id
 _symmetry_equiv_pos_as_xyz
  1  'x, y, z'
loop_
 _atom_site_type_symbol
 _atom_site_label
 _atom_site_symmetry_multiplicity
 _atom_site_fract_x
 _atom_site_fract_y
 _atom_site_fract_z
 _atom_site_occupancy
  Ce  Ce0  1  0.000049  0.199337  0.999784  1
  Ce  Ce1  1  0.999816  0.400648  0.000247  1
  Ce  Ce2  1  0.500000  0.000000  0.000000  1
  Ce  Ce3  1  0.501921  0.199431  0.999550  1
  Ce  Ce4  1  0.999951  0.800663  0.000216  1
  Ce  Ce5  1  0.498163  0.398475  0.003926  1
  Ce  Ce6  1  0.501837  0.601525  0.996074  1
  Ce  Ce7  1  0.498079  0.800569  0.000450  1
  Ce  Ce8  1  0.000184  0.599352  0.999753  1
  Y  Y9  1  0.000000  0.000000  0.000000  1
  O  O10  1  0.125400  0.149934  0.249824  1
  O  O11  1  0.126280  0.352326  0.244752  1
  O  O12  1  0.125339  0.550149  0.249707  1
  O  O13  1  0.377674  0.050381  0.748072  1
  O  O14  1  0.624785  0.149746  0.250381  1
  O  O15  1  0.375164  0.250494  0.749064  1
  O  O16  1  0.125957  0.748444  0.251265  1
  O  O17  1  0.624625  0.350449  0.249351  1
  O  O18  1  0.874200  0.050134  0.748504  1
  O  O19  1  0.624578  0.550293  0.249691  1
  O  O20  1  0.375422  0.449707  0.750309  1
  O  O21  1  0.125800  0.949866  0.251496  1
  O  O22  1  0.874043  0.251556  0.748735  1
  O  O23  1  0.624836  0.749506  0.250936  1
  O  O24  1  0.375375  0.649551  0.750649  1
  O  O25  1  0.622326  0.949619  0.251928  1
  O  O26  1  0.874661  0.449851  0.750293  1
  O  O27  1  0.375215  0.850254  0.749619  1
  O  O28  1  0.873720  0.647674  0.755248  1
  O  O29  1  0.874600  0.850066  0.750176  1
