# generated using pymatgen
data_Nd3ReO7
_symmetry_space_group_name_H-M   'P 1'
_cell_length_a   6.65585938
_cell_length_b   6.65585938
_cell_length_c   7.64542465
_cell_angle_alpha   90.00000000
_cell_angle_beta   90.00000000
_cell_angle_gamma   111.18180160
_symmetry_Int_Tables_number   1
_chemical_formula_structural   Nd3ReO7
_chemical_formula_sum   'Nd6 Re2 O14'
_cell_volume   315.81309858
_cell_formula_units_Z   2
loop_
 _symmetry_equiv_pos_site_id
 _symmetry_equiv_pos_as_xyz
  1  'x, y, z'
loop_
 _atom_site_type_symbol
 _atom_site_label
 _atom_site_symmetry_multiplicity
 _atom_site_fract_x
 _atom_site_fract_y
 _atom_site_fract_z
 _atom_site_occupancy
  O  O0  1  0.344182  0.607269  0.750000  1
  O  O1  1  0.655818  0.392731  0.250000  1
  O  O2  1  0.607269  0.344182  0.750000  1
  O  O3  1  0.392731  0.655818  0.250000  1
  O  O4  1  0.059672  0.311421  0.037166  1
  O  O5  1  0.940328  0.688579  0.537166  1
  O  O6  1  0.311421  0.059672  0.462834  1
  O  O7  1  0.688579  0.940328  0.962834  1
  O  O8  1  0.921693  0.921693  0.250000  1
  O  O9  1  0.078307  0.078307  0.750000  1
  O  O10  1  0.311421  0.059672  0.037166  1
  O  O11  1  0.688579  0.940328  0.537166  1
  O  O12  1  0.059672  0.311421  0.462834  1
  O  O13  1  0.940328  0.688579  0.962834  1
  Nd  Nd14  1  0.577878  0.024774  0.250000  1
  Nd  Nd15  1  0.422122  0.975226  0.750000  1
  Nd  Nd16  1  0.500000  0.500000  0.500000  1
  Nd  Nd17  1  0.500000  0.500000  0.000000  1
  Nd  Nd18  1  0.975226  0.422122  0.750000  1
  Nd  Nd19  1  0.024774  0.577878  0.250000  1
  Re  Re20  1  0.000000  0.000000  0.000000  1
  Re  Re21  1  0.000000  0.000000  0.500000  1
