# generated using pymatgen
data_NdRh3
_symmetry_space_group_name_H-M   'P 1'
_cell_length_a   5.33654354
_cell_length_b   5.33655188
_cell_length_c   17.64935813
_cell_angle_alpha   89.99892748
_cell_angle_beta   90.00186960
_cell_angle_gamma   119.99979178
_symmetry_Int_Tables_number   1
_chemical_formula_structural   NdRh3
_chemical_formula_sum   'Nd6 Rh18'
_cell_volume   435.29256726
_cell_formula_units_Z   6
loop_
 _symmetry_equiv_pos_site_id
 _symmetry_equiv_pos_as_xyz
  1  'x, y, z'
loop_
 _atom_site_type_symbol
 _atom_site_label
 _atom_site_symmetry_multiplicity
 _atom_site_fract_x
 _atom_site_fract_y
 _atom_site_fract_z
 _atom_site_occupancy
  Nd  Nd0  1  0.333267  0.666606  0.541522  1
  Nd  Nd1  1  0.666696  0.333394  0.041463  1
  Nd  Nd2  1  0.666673  0.333357  0.458530  1
  Nd  Nd3  1  0.333300  0.666634  0.958520  1
  Nd  Nd4  1  0.333421  0.666707  0.750021  1
  Nd  Nd5  1  0.666595  0.333296  0.249971  1
  Rh  Rh6  1  0.166442  0.332814  0.127408  1
  Rh  Rh7  1  0.833549  0.667181  0.627441  1
  Rh  Rh8  1  0.667136  0.833572  0.127407  1
  Rh  Rh9  1  0.166377  0.833509  0.127417  1
  Rh  Rh10  1  0.833604  0.166475  0.627455  1
  Rh  Rh11  1  0.332855  0.166438  0.627450  1
  Rh  Rh12  1  0.833555  0.667174  0.872576  1
  Rh  Rh13  1  0.833604  0.166441  0.872571  1
  Rh  Rh14  1  0.332840  0.166406  0.872572  1
  Rh  Rh15  1  0.667123  0.833559  0.372565  1
  Rh  Rh16  1  0.166408  0.833554  0.372561  1
  Rh  Rh17  1  0.166417  0.332857  0.372560  1
  Rh  Rh18  1  0.000020  0.999993  0.249984  1
  Rh  Rh19  1  0.000008  0.000013  0.750018  1
  Rh  Rh20  1  0.333339  0.666631  0.249985  1
  Rh  Rh21  1  0.666687  0.333378  0.750008  1
  Rh  Rh22  1  0.000022  0.000008  0.999987  1
  Rh  Rh23  1  0.999969  0.000007  0.500007  1
