# generated using pymatgen
data_Co11CuO16
_symmetry_space_group_name_H-M   'P 1'
_cell_length_a   5.91538516
_cell_length_b   5.88045273
_cell_length_c   8.32196977
_cell_angle_alpha   89.80185038
_cell_angle_beta   90.00000000
_cell_angle_gamma   90.00000000
_symmetry_Int_Tables_number   1
_chemical_formula_structural   Co11CuO16
_chemical_formula_sum   'Co11 Cu1 O16'
_cell_volume   289.47917585
_cell_formula_units_Z   1
loop_
 _symmetry_equiv_pos_site_id
 _symmetry_equiv_pos_as_xyz
  1  'x, y, z'
loop_
 _atom_site_type_symbol
 _atom_site_label
 _atom_site_symmetry_multiplicity
 _atom_site_fract_x
 _atom_site_fract_y
 _atom_site_fract_z
 _atom_site_occupancy
  Co  Co0  1  0.000000  0.002137  0.001499  1
  Co  Co1  1  0.750251  0.497568  0.126081  1
  Co  Co2  1  0.249749  0.497568  0.126081  1
  Co  Co3  1  0.500000  0.000228  0.254326  1
  Co  Co4  1  0.000000  0.250000  0.375000  1
  Co  Co5  1  0.500000  0.499772  0.495674  1
  Co  Co6  1  0.750251  0.002432  0.623919  1
  Co  Co7  1  0.249749  0.002432  0.623919  1
  Co  Co8  1  0.000000  0.497863  0.748501  1
  Co  Co9  1  0.500000  0.250000  0.875000  1
  Co  Co10  1  0.500000  0.750000  0.875000  1
  Cu  Cu11  1  0.000000  0.750000  0.375000  1
  O  O12  1  0.500000  0.726713  0.119263  1
  O  O13  1  0.500000  0.266467  0.119926  1
  O  O14  1  0.000000  0.270481  0.143418  1
  O  O15  1  0.000000  0.731330  0.132965  1
  O  O16  1  0.775789  0.489846  0.364265  1
  O  O17  1  0.224211  0.489846  0.364265  1
  O  O18  1  0.775789  0.010154  0.385735  1
  O  O19  1  0.224211  0.010154  0.385735  1
  O  O20  1  0.000000  0.229519  0.606582  1
  O  O21  1  0.000000  0.768670  0.617035  1
  O  O22  1  0.500000  0.233533  0.630074  1
  O  O23  1  0.500000  0.773287  0.630737  1
  O  O24  1  0.732180  0.000593  0.864029  1
  O  O25  1  0.267820  0.000593  0.864029  1
  O  O26  1  0.267820  0.499407  0.885971  1
  O  O27  1  0.732180  0.499407  0.885971  1
