# generated using pymatgen
data_Nd3TaO7
_symmetry_space_group_name_H-M   'P 1'
_cell_length_a   6.68158448
_cell_length_b   6.68158448
_cell_length_c   7.74357138
_cell_angle_alpha   90.00000000
_cell_angle_beta   90.00000000
_cell_angle_gamma   109.65322459
_symmetry_Int_Tables_number   1
_chemical_formula_structural   Nd3TaO7
_chemical_formula_sum   'Nd6 Ta2 O14'
_cell_volume   325.56203553
_cell_formula_units_Z   2
loop_
 _symmetry_equiv_pos_site_id
 _symmetry_equiv_pos_as_xyz
  1  'x, y, z'
loop_
 _atom_site_type_symbol
 _atom_site_label
 _atom_site_symmetry_multiplicity
 _atom_site_fract_x
 _atom_site_fract_y
 _atom_site_fract_z
 _atom_site_occupancy
  O  O0  1  0.942880  0.057120  0.500000  1
  O  O1  1  0.057120  0.942880  0.000000  1
  O  O2  1  0.364893  0.635107  0.000000  1
  O  O3  1  0.635107  0.364893  0.500000  1
  O  O4  1  0.370573  0.629427  0.500000  1
  O  O5  1  0.629427  0.370573  0.000000  1
  O  O6  1  0.313619  0.068979  0.720545  1
  O  O7  1  0.686381  0.931021  0.220545  1
  O  O8  1  0.313365  0.068330  0.279448  1
  O  O9  1  0.686635  0.931670  0.779448  1
  O  O10  1  0.068330  0.313365  0.220552  1
  O  O11  1  0.931670  0.686635  0.720552  1
  O  O12  1  0.931021  0.686381  0.279455  1
  O  O13  1  0.068979  0.313619  0.779455  1
  Nd  Nd14  1  0.501298  0.501298  0.250000  1
  Nd  Nd15  1  0.498702  0.498702  0.750000  1
  Nd  Nd16  1  0.999259  0.535283  0.000036  1
  Nd  Nd17  1  0.000741  0.464717  0.500036  1
  Nd  Nd18  1  0.535283  0.999259  0.499964  1
  Nd  Nd19  1  0.464717  0.000741  0.999964  1
  Ta  Ta20  1  1.000246  1.000246  0.250000  1
  Ta  Ta21  1  -0.000246  -0.000246  0.750000  1
