# generated using pymatgen
data_NdCu(MoO4)2
_symmetry_space_group_name_H-M   'P 1'
_cell_length_a   10.05556039
_cell_length_b   10.49166389
_cell_length_c   14.96714215
_cell_angle_alpha   90.00000000
_cell_angle_beta   90.00000000
_cell_angle_gamma   90.00000000
_symmetry_Int_Tables_number   1
_chemical_formula_structural   NdCu(MoO4)2
_chemical_formula_sum   'Nd8 Cu8 Mo16 O64'
_cell_volume   1579.02690885
_cell_formula_units_Z   8
loop_
 _symmetry_equiv_pos_site_id
 _symmetry_equiv_pos_as_xyz
  1  'x, y, z'
loop_
 _atom_site_type_symbol
 _atom_site_label
 _atom_site_symmetry_multiplicity
 _atom_site_fract_x
 _atom_site_fract_y
 _atom_site_fract_z
 _atom_site_occupancy
  Nd  Nd0  1  0.777368  0.034970  0.103665  1
  Nd  Nd1  1  0.777368  0.534970  0.396335  1
  Nd  Nd2  1  0.222632  0.465030  0.603665  1
  Nd  Nd3  1  0.722632  0.034970  0.603665  1
  Nd  Nd4  1  0.722632  0.534970  0.896335  1
  Nd  Nd5  1  0.277368  0.465030  0.103665  1
  Nd  Nd6  1  0.277368  0.965030  0.396335  1
  Nd  Nd7  1  0.222632  0.965030  0.896335  1
  Cu  Cu8  1  0.693513  0.681494  0.694373  1
  Cu  Cu9  1  0.193513  0.318506  0.805627  1
  Cu  Cu10  1  0.693513  0.181494  0.805627  1
  Cu  Cu11  1  0.306487  0.318506  0.305627  1
  Cu  Cu12  1  0.806487  0.181494  0.305627  1
  Cu  Cu13  1  0.306487  0.818506  0.194373  1
  Cu  Cu14  1  0.806487  0.681494  0.194373  1
  Cu  Cu15  1  0.193513  0.818506  0.694373  1
  Mo  Mo16  1  0.328947  0.602625  0.846646  1
  Mo  Mo17  1  0.998103  0.220774  0.441837  1
  Mo  Mo18  1  0.001897  0.779226  0.558163  1
  Mo  Mo19  1  0.828947  0.897375  0.846646  1
  Mo  Mo20  1  0.671053  0.397375  0.153354  1
  Mo  Mo21  1  0.171053  0.602625  0.346646  1
  Mo  Mo22  1  0.671053  0.897375  0.346646  1
  Mo  Mo23  1  0.828947  0.397375  0.653354  1
  Mo  Mo24  1  0.328947  0.102625  0.653354  1
  Mo  Mo25  1  0.501897  0.220774  0.941837  1
  Mo  Mo26  1  0.998103  0.720774  0.058163  1
  Mo  Mo27  1  0.171053  0.102625  0.153354  1
  Mo  Mo28  1  0.501897  0.720774  0.558163  1
  Mo  Mo29  1  0.498103  0.279226  0.441837  1
  Mo  Mo30  1  0.498103  0.779226  0.058163  1
  Mo  Mo31  1  0.001897  0.279226  0.941837  1
  O  O32  1  0.786319  0.422913  0.539576  1
  O  O33  1  0.592990  0.134271  0.024119  1
  O  O34  1  0.613675  0.316417  0.868400  1
  O  O35  1  0.605462  0.667620  0.004282  1
  O  O36  1  0.105462  0.332380  0.495718  1
  O  O37  1  0.386325  0.183583  0.368400  1
  O  O38  1  0.713681  0.422913  0.039576  1
  O  O39  1  0.098506  0.114913  0.375838  1
  O  O40  1  0.901494  0.385087  0.875838  1
  O  O41  1  0.274200  0.761841  0.816616  1
  O  O42  1  0.495556  0.912372  0.334635  1
  O  O43  1  0.495556  0.412372  0.165365  1
  O  O44  1  0.907010  0.134271  0.524119  1
  O  O45  1  0.113675  0.183583  0.868400  1
  O  O46  1  0.394538  0.332380  0.995718  1
  O  O47  1  0.004444  0.412372  0.665365  1
  O  O48  1  0.592990  0.634271  0.475881  1
  O  O49  1  0.255558  0.487186  0.273436  1
  O  O50  1  0.244442  0.987186  0.726564  1
  O  O51  1  0.907010  0.634271  0.975881  1
  O  O52  1  0.894538  0.667620  0.504282  1
  O  O53  1  0.995556  0.087628  0.165365  1
  O  O54  1  0.092990  0.365729  0.024119  1
  O  O55  1  0.886325  0.816417  0.131600  1
  O  O56  1  0.744442  0.512814  0.726564  1
  O  O57  1  0.113675  0.683583  0.631600  1
  O  O58  1  0.504444  0.587628  0.834635  1
  O  O59  1  0.407010  0.365729  0.524119  1
  O  O60  1  0.725800  0.238159  0.183384  1
  O  O61  1  0.886325  0.316417  0.368400  1
  O  O62  1  0.725800  0.738159  0.316616  1
  O  O63  1  0.213681  0.077087  0.039576  1
  O  O64  1  0.225800  0.261841  0.183384  1
  O  O65  1  0.286319  0.577087  0.960424  1
  O  O66  1  0.894538  0.167620  0.995718  1
  O  O67  1  0.774200  0.738159  0.816616  1
  O  O68  1  0.394538  0.832380  0.504282  1
  O  O69  1  0.598506  0.885087  0.124162  1
  O  O70  1  0.605462  0.167620  0.495718  1
  O  O71  1  0.995556  0.587628  0.334635  1
  O  O72  1  0.255558  0.987186  0.226564  1
  O  O73  1  0.098506  0.614913  0.124162  1
  O  O74  1  0.755558  0.512814  0.226564  1
  O  O75  1  0.407010  0.865729  0.975881  1
  O  O76  1  0.386325  0.683583  0.131600  1
  O  O77  1  0.213681  0.577087  0.460424  1
  O  O78  1  0.613675  0.816417  0.631600  1
  O  O79  1  0.004444  0.912372  0.834635  1
  O  O80  1  0.598506  0.385087  0.375838  1
  O  O81  1  0.105462  0.832380  0.004282  1
  O  O82  1  0.286319  0.077087  0.539576  1
  O  O83  1  0.786319  0.922913  0.960424  1
  O  O84  1  0.755558  0.012814  0.273436  1
  O  O85  1  0.901494  0.885087  0.624162  1
  O  O86  1  0.401494  0.614913  0.624162  1
  O  O87  1  0.713681  0.922913  0.460424  1
  O  O88  1  0.225800  0.761841  0.316616  1
  O  O89  1  0.401494  0.114913  0.875838  1
  O  O90  1  0.774200  0.238159  0.683384  1
  O  O91  1  0.274200  0.261841  0.683384  1
  O  O92  1  0.244442  0.487186  0.773436  1
  O  O93  1  0.744442  0.012814  0.773436  1
  O  O94  1  0.504444  0.087628  0.665365  1
  O  O95  1  0.092990  0.865729  0.475881  1
