# generated using pymatgen
data_Nd2Fe14B
_symmetry_space_group_name_H-M   'P 1'
_cell_length_a   8.62859869
_cell_length_b   8.62859869
_cell_length_c   12.75007906
_cell_angle_alpha   90.00000000
_cell_angle_beta   90.00000000
_cell_angle_gamma   90.00000000
_symmetry_Int_Tables_number   1
_chemical_formula_structural   Nd2Fe14B
_chemical_formula_sum   'Nd8 Fe56 B4'
_cell_volume   949.27800698
_cell_formula_units_Z   4
loop_
 _symmetry_equiv_pos_site_id
 _symmetry_equiv_pos_as_xyz
  1  'x, y, z'
loop_
 _atom_site_type_symbol
 _atom_site_label
 _atom_site_symmetry_multiplicity
 _atom_site_fract_x
 _atom_site_fract_y
 _atom_site_fract_z
 _atom_site_occupancy
  Nd  Nd0  1  0.234956  0.234956  -0.000000  1
  Nd  Nd1  1  0.695684  0.695684  0.500000  1
  Nd  Nd2  1  0.265044  0.734956  0.500000  1
  Nd  Nd3  1  0.195684  0.804316  -0.000000  1
  Nd  Nd4  1  0.804316  0.195684  -0.000000  1
  Nd  Nd5  1  0.734956  0.265044  0.500000  1
  Nd  Nd6  1  0.304316  0.304316  0.500000  1
  Nd  Nd7  1  0.765044  0.765044  -0.000000  1
  Fe  Fe8  1  0.197788  0.802212  0.249002  1
  Fe  Fe9  1  0.197788  0.802212  0.750998  1
  Fe  Fe10  1  0.523083  0.141712  0.322314  1
  Fe  Fe11  1  0.243642  0.529660  0.881923  1
  Fe  Fe12  1  0.476917  0.858288  0.677686  1
  Fe  Fe13  1  0.500000  -0.000000  0.500000  1
  Fe  Fe14  1  0.256358  0.029660  0.381923  1
  Fe  Fe15  1  0.970340  0.743642  0.618077  1
  Fe  Fe16  1  0.000000  0.000000  0.094308  1
  Fe  Fe17  1  0.976917  0.641712  0.822314  1
  Fe  Fe18  1  0.000000  -0.000000  0.905692  1
  Fe  Fe19  1  0.358288  0.023083  0.177686  1
  Fe  Fe20  1  0.476917  0.858288  0.322314  1
  Fe  Fe21  1  0.029660  0.256358  0.381923  1
  Fe  Fe22  1  0.858288  0.476917  0.322314  1
  Fe  Fe23  1  0.141712  0.523083  0.677686  1
  Fe  Fe24  1  0.743642  0.970340  0.381923  1
  Fe  Fe25  1  0.099876  0.099876  0.760517  1
  Fe  Fe26  1  0.756358  0.470340  0.118077  1
  Fe  Fe27  1  0.697788  0.697788  0.749002  1
  Fe  Fe28  1  0.500000  0.500000  0.405692  1
  Fe  Fe29  1  0.470340  0.756358  0.118077  1
  Fe  Fe30  1  0.358288  0.023083  0.822314  1
  Fe  Fe31  1  0.302212  0.302212  0.749002  1
  Fe  Fe32  1  0.900124  0.900124  0.760517  1
  Fe  Fe33  1  0.141712  0.523083  0.322314  1
  Fe  Fe34  1  0.599876  0.400124  0.739483  1
  Fe  Fe35  1  0.641712  0.976917  0.822314  1
  Fe  Fe36  1  0.256358  0.029660  0.618077  1
  Fe  Fe37  1  0.743642  0.970340  0.618077  1
  Fe  Fe38  1  0.400124  0.599876  0.739483  1
  Fe  Fe39  1  0.900124  0.900124  0.239483  1
  Fe  Fe40  1  0.976917  0.641712  0.177686  1
  Fe  Fe41  1  0.470340  0.756358  0.881923  1
  Fe  Fe42  1  0.802212  0.197788  0.750998  1
  Fe  Fe43  1  0.970340  0.743642  0.381923  1
  Fe  Fe44  1  0.529660  0.243642  0.118077  1
  Fe  Fe45  1  0.099876  0.099876  0.239483  1
  Fe  Fe46  1  0.023083  0.358288  0.177686  1
  Fe  Fe47  1  0.500000  0.000000  -0.000000  1
  Fe  Fe48  1  0.243642  0.529660  0.118077  1
  Fe  Fe49  1  0.529660  0.243642  0.881923  1
  Fe  Fe50  1  0.858288  0.476917  0.677686  1
  Fe  Fe51  1  0.500000  0.500000  0.594308  1
  Fe  Fe52  1  0.697788  0.697788  0.250998  1
  Fe  Fe53  1  0.523083  0.141712  0.677686  1
  Fe  Fe54  1  0.029660  0.256358  0.618077  1
  Fe  Fe55  1  0.641712  0.976917  0.177686  1
  Fe  Fe56  1  0.599876  0.400124  0.260517  1
  Fe  Fe57  1  0.302212  0.302212  0.250998  1
  Fe  Fe58  1  0.756358  0.470340  0.881923  1
  Fe  Fe59  1  0.023083  0.358288  0.822314  1
  Fe  Fe60  1  0.802212  0.197788  0.249002  1
  Fe  Fe61  1  0.400124  0.599876  0.260517  1
  Fe  Fe62  1  0.000000  0.500000  0.500000  1
  Fe  Fe63  1  0.000000  0.500000  -0.000000  1
  B  B64  1  0.572545  0.427455  -0.000000  1
  B  B65  1  0.072545  0.072545  0.500000  1
  B  B66  1  0.927455  0.927455  0.500000  1
  B  B67  1  0.427455  0.572545  -0.000000  1
