# generated using pymatgen
data_Nd2Fe14C
_symmetry_space_group_name_H-M   'P 1'
_cell_length_a   8.73823305
_cell_length_b   8.73823305
_cell_length_c   12.44494375
_cell_angle_alpha   90.00000000
_cell_angle_beta   90.00000000
_cell_angle_gamma   90.00000000
_symmetry_Int_Tables_number   1
_chemical_formula_structural   Nd2Fe14C
_chemical_formula_sum   'Nd8 Fe56 C4'
_cell_volume   950.25504596
_cell_formula_units_Z   4
loop_
 _symmetry_equiv_pos_site_id
 _symmetry_equiv_pos_as_xyz
  1  'x, y, z'
loop_
 _atom_site_type_symbol
 _atom_site_label
 _atom_site_symmetry_multiplicity
 _atom_site_fract_x
 _atom_site_fract_y
 _atom_site_fract_z
 _atom_site_occupancy
  Nd  Nd0  1  0.175907  0.824093  0.000000  1
  Nd  Nd1  1  0.262750  0.737250  0.500000  1
  Nd  Nd2  1  0.237250  0.237250  0.000000  1
  Nd  Nd3  1  0.324093  0.324093  0.500000  1
  Nd  Nd4  1  0.824093  0.175907  0.000000  1
  Nd  Nd5  1  0.737250  0.262750  0.500000  1
  Nd  Nd6  1  0.762750  0.762750  0.000000  1
  Nd  Nd7  1  0.675907  0.675907  0.500000  1
  Fe  Fe8  1  0.358528  0.027975  0.178857  1
  Fe  Fe9  1  0.956939  0.738648  0.390198  1
  Fe  Fe10  1  0.394231  0.605769  0.257184  1
  Fe  Fe11  1  0.641472  0.972025  0.178857  1
  Fe  Fe12  1  0.761352  0.456939  0.109802  1
  Fe  Fe13  1  0.043061  0.261352  0.609802  1
  Fe  Fe14  1  0.190702  0.809298  0.252185  1
  Fe  Fe15  1  0.690702  0.690702  0.752185  1
  Fe  Fe16  1  0.972025  0.641472  0.821143  1
  Fe  Fe17  1  0.738648  0.956939  0.390198  1
  Fe  Fe18  1  0.043061  0.261352  0.390198  1
  Fe  Fe19  1  0.141472  0.527975  0.321143  1
  Fe  Fe20  1  0.000000  0.000000  0.896837  1
  Fe  Fe21  1  0.527975  0.141472  0.678857  1
  Fe  Fe22  1  0.641472  0.972025  0.821143  1
  Fe  Fe23  1  0.761352  0.456939  0.890198  1
  Fe  Fe24  1  0.309298  0.309298  0.247815  1
  Fe  Fe25  1  0.261352  0.043061  0.609802  1
  Fe  Fe26  1  0.858528  0.472025  0.678857  1
  Fe  Fe27  1  0.190702  0.809298  0.747815  1
  Fe  Fe28  1  0.894231  0.894231  0.242816  1
  Fe  Fe29  1  0.358528  0.027975  0.821143  1
  Fe  Fe30  1  0.809298  0.190702  0.252185  1
  Fe  Fe31  1  0.000000  0.000000  0.103163  1
  Fe  Fe32  1  0.105769  0.105769  0.242816  1
  Fe  Fe33  1  0.500000  0.500000  0.396837  1
  Fe  Fe34  1  0.894231  0.894231  0.757184  1
  Fe  Fe35  1  0.105769  0.105769  0.757184  1
  Fe  Fe36  1  0.605769  0.394231  0.257184  1
  Fe  Fe37  1  0.543061  0.238648  0.109802  1
  Fe  Fe38  1  0.141472  0.527975  0.678857  1
  Fe  Fe39  1  0.500000  0.000000  0.000000  1
  Fe  Fe40  1  0.543061  0.238648  0.890198  1
  Fe  Fe41  1  0.858528  0.472025  0.321143  1
  Fe  Fe42  1  0.527975  0.141472  0.321143  1
  Fe  Fe43  1  0.456939  0.761352  0.890198  1
  Fe  Fe44  1  0.261352  0.043061  0.390198  1
  Fe  Fe45  1  0.690702  0.690702  0.247815  1
  Fe  Fe46  1  0.238648  0.543061  0.109802  1
  Fe  Fe47  1  0.956939  0.738648  0.609802  1
  Fe  Fe48  1  0.027975  0.358528  0.821143  1
  Fe  Fe49  1  0.472025  0.858528  0.678857  1
  Fe  Fe50  1  0.309298  0.309298  0.752185  1
  Fe  Fe51  1  0.500000  0.500000  0.603163  1
  Fe  Fe52  1  0.238648  0.543061  0.890198  1
  Fe  Fe53  1  0.394231  0.605769  0.742816  1
  Fe  Fe54  1  0.027975  0.358528  0.178857  1
  Fe  Fe55  1  0.456939  0.761352  0.109802  1
  Fe  Fe56  1  0.972025  0.641472  0.178857  1
  Fe  Fe57  1  0.738648  0.956939  0.609802  1
  Fe  Fe58  1  0.000000  0.500000  0.000000  1
  Fe  Fe59  1  0.605769  0.394231  0.742816  1
  Fe  Fe60  1  0.809298  0.190702  0.747815  1
  Fe  Fe61  1  0.500000  0.000000  0.500000  1
  Fe  Fe62  1  0.472025  0.858528  0.321143  1
  Fe  Fe63  1  0.000000  0.500000  0.500000  1
  C  C64  1  0.624416  0.375584  0.000000  1
  C  C65  1  0.375584  0.624416  0.000000  1
  C  C66  1  0.124416  0.124416  0.500000  1
  C  C67  1  0.875584  0.875584  0.500000  1
