# generated using pymatgen
data_Nd2MoO6
_symmetry_space_group_name_H-M   'P 1'
_cell_length_a   5.73804551
_cell_length_b   5.73804552
_cell_length_c   16.51126369
_cell_angle_alpha   100.00659596
_cell_angle_beta   100.00659596
_cell_angle_gamma   90.00000001
_symmetry_Int_Tables_number   1
_chemical_formula_structural   Nd2MoO6
_chemical_formula_sum   'Nd8 Mo4 O24'
_cell_volume   526.96648494
_cell_formula_units_Z   4
loop_
 _symmetry_equiv_pos_site_id
 _symmetry_equiv_pos_as_xyz
  1  'x, y, z'
loop_
 _atom_site_type_symbol
 _atom_site_label
 _atom_site_symmetry_multiplicity
 _atom_site_fract_x
 _atom_site_fract_y
 _atom_site_fract_z
 _atom_site_occupancy
  O  O0  1  0.750000  0.993639  0.500000  1
  O  O1  1  0.006361  0.250000  0.000000  1
  O  O2  1  0.493639  0.750000  0.000000  1
  O  O3  1  0.250000  0.506361  0.500000  1
  O  O4  1  0.250000  0.006361  0.500000  1
  O  O5  1  0.993639  0.750000  0.000000  1
  O  O6  1  0.506361  0.250000  0.000000  1
  O  O7  1  0.750000  0.493639  0.500000  1
  O  O8  1  0.914743  0.169693  0.677315  1
  O  O9  1  0.492378  0.737428  0.822685  1
  O  O10  1  0.830307  0.085257  0.822685  1
  O  O11  1  0.237428  0.330307  0.322685  1
  O  O12  1  0.737428  0.492378  0.322685  1
  O  O13  1  0.330307  0.237428  0.822685  1
  O  O14  1  0.992378  0.585257  0.822685  1
  O  O15  1  0.414743  0.007622  0.677315  1
  O  O16  1  0.762572  0.669693  0.677315  1
  O  O17  1  0.169693  0.914743  0.177315  1
  O  O18  1  0.507622  0.262572  0.177315  1
  O  O19  1  0.085257  0.830307  0.322685  1
  O  O20  1  0.262572  0.507622  0.677315  1
  O  O21  1  0.669693  0.762572  0.177315  1
  O  O22  1  0.007622  0.414743  0.177315  1
  O  O23  1  0.585257  0.992378  0.322685  1
  Mo  Mo24  1  0.375000  0.125000  0.250000  1
  Mo  Mo25  1  0.625000  0.875000  0.750000  1
  Mo  Mo26  1  0.125000  0.375000  0.750000  1
  Mo  Mo27  1  0.875000  0.625000  0.250000  1
  Nd  Nd28  1  0.212389  0.962389  0.924778  1
  Nd  Nd29  1  0.462389  0.712389  0.424778  1
  Nd  Nd30  1  0.287611  0.537611  0.075222  1
  Nd  Nd31  1  0.037611  0.787611  0.575222  1
  Nd  Nd32  1  0.787611  0.037611  0.075222  1
  Nd  Nd33  1  0.537611  0.287611  0.575222  1
  Nd  Nd34  1  0.712389  0.462389  0.924778  1
  Nd  Nd35  1  0.962389  0.212389  0.424778  1
