# generated using pymatgen
data_AgPdO3
_symmetry_space_group_name_H-M   'P 1'
_cell_length_a   6.47763470
_cell_length_b   6.47763470
_cell_length_c   6.83819498
_cell_angle_alpha   90.00000000
_cell_angle_beta   90.00000000
_cell_angle_gamma   68.84731775
_symmetry_Int_Tables_number   1
_chemical_formula_structural   AgPdO3
_chemical_formula_sum   'Ag4 Pd4 O12'
_cell_volume   267.59629883
_cell_formula_units_Z   4
loop_
 _symmetry_equiv_pos_site_id
 _symmetry_equiv_pos_as_xyz
  1  'x, y, z'
loop_
 _atom_site_type_symbol
 _atom_site_label
 _atom_site_symmetry_multiplicity
 _atom_site_fract_x
 _atom_site_fract_y
 _atom_site_fract_z
 _atom_site_occupancy
  Ag  Ag0  1  0.007134  0.007134  0.250000  1
  Ag  Ag1  1  0.619765  0.619765  0.750000  1
  Ag  Ag2  1  0.380236  0.380236  0.250000  1
  Ag  Ag3  1  0.992866  0.992866  0.750000  1
  Pd  Pd4  1  0.000000  0.500000  0.000000  1
  Pd  Pd5  1  0.000000  0.500000  0.500000  1
  Pd  Pd6  1  0.500000  0.000000  0.000000  1
  Pd  Pd7  1  0.500000  0.000000  0.500000  1
  O  O8  1  0.164974  0.522976  0.750000  1
  O  O9  1  0.477024  0.835026  0.250000  1
  O  O10  1  0.310197  0.747247  0.250000  1
  O  O11  1  0.252753  0.689803  0.750000  1
  O  O12  1  0.838928  0.838928  0.498349  1
  O  O13  1  0.161072  0.161072  0.998349  1
  O  O14  1  0.161072  0.161072  0.501651  1
  O  O15  1  0.838928  0.838928  0.001651  1
  O  O16  1  0.689803  0.252753  0.750000  1
  O  O17  1  0.747247  0.310197  0.250000  1
  O  O18  1  0.835026  0.477024  0.250000  1
  O  O19  1  0.522976  0.164974  0.750000  1
