# generated using pymatgen
data_Nd2NiO4
_symmetry_space_group_name_H-M   'P 1'
_cell_length_a   5.57569496
_cell_length_b   5.57569496
_cell_length_c   12.14209081
_cell_angle_alpha   90.00000000
_cell_angle_beta   90.00000000
_cell_angle_gamma   90.00000000
_symmetry_Int_Tables_number   1
_chemical_formula_structural   Nd2NiO4
_chemical_formula_sum   'Nd8 Ni4 O16'
_cell_volume   377.47786373
_cell_formula_units_Z   4
loop_
 _symmetry_equiv_pos_site_id
 _symmetry_equiv_pos_as_xyz
  1  'x, y, z'
loop_
 _atom_site_type_symbol
 _atom_site_label
 _atom_site_symmetry_multiplicity
 _atom_site_fract_x
 _atom_site_fract_y
 _atom_site_fract_z
 _atom_site_occupancy
  Ni  Ni0  1  0.000000  0.000000  0.000000  1
  Ni  Ni1  1  0.500000  0.000000  0.500000  1
  Ni  Ni2  1  0.000000  0.500000  0.500000  1
  Ni  Ni3  1  0.500000  0.500000  0.000000  1
  Nd  Nd4  1  0.983229  0.983229  0.363175  1
  Nd  Nd5  1  0.516771  0.983229  0.863175  1
  Nd  Nd6  1  0.983229  0.516771  0.863175  1
  Nd  Nd7  1  0.483229  0.016771  0.136825  1
  Nd  Nd8  1  0.016771  0.483229  0.136825  1
  Nd  Nd9  1  0.516771  0.516771  0.363175  1
  Nd  Nd10  1  0.483229  0.483229  0.636825  1
  Nd  Nd11  1  0.016771  0.016771  0.636825  1
  O  O12  1  0.250000  0.250000  0.970005  1
  O  O13  1  0.250000  0.250000  0.470005  1
  O  O14  1  0.750000  0.750000  0.529995  1
  O  O15  1  0.750000  0.750000  0.029995  1
  O  O16  1  0.053801  0.053801  0.179981  1
  O  O17  1  0.446199  0.053801  0.679981  1
  O  O18  1  0.053801  0.446199  0.679981  1
  O  O19  1  0.553801  0.946199  0.320019  1
  O  O20  1  0.946199  0.553801  0.320019  1
  O  O21  1  0.446199  0.446199  0.179981  1
  O  O22  1  0.553801  0.553801  0.820019  1
  O  O23  1  0.946199  0.946199  0.820019  1
  O  O24  1  0.750000  0.250000  0.000000  1
  O  O25  1  0.250000  0.750000  0.500000  1
  O  O26  1  0.250000  0.750000  0.000000  1
  O  O27  1  0.750000  0.250000  0.500000  1
