# generated using pymatgen
data_NdOsO4
_symmetry_space_group_name_H-M   'P 1'
_cell_length_a   5.49578953
_cell_length_b   7.60315933
_cell_length_c   15.21070163
_cell_angle_alpha   89.98003105
_cell_angle_beta   90.00433882
_cell_angle_gamma   90.01434208
_symmetry_Int_Tables_number   1
_chemical_formula_structural   NdOsO4
_chemical_formula_sum   'Nd8 Os8 O32'
_cell_volume   635.58463561
_cell_formula_units_Z   8
loop_
 _symmetry_equiv_pos_site_id
 _symmetry_equiv_pos_as_xyz
  1  'x, y, z'
loop_
 _atom_site_type_symbol
 _atom_site_label
 _atom_site_symmetry_multiplicity
 _atom_site_fract_x
 _atom_site_fract_y
 _atom_site_fract_z
 _atom_site_occupancy
  Nd  Nd0  1  0.745754  0.621957  0.095783  1
  Nd  Nd1  1  0.808565  0.376417  0.559263  1
  Nd  Nd2  1  0.745915  0.877847  0.596006  1
  Nd  Nd3  1  0.308528  0.876390  0.940766  1
  Nd  Nd4  1  0.308460  0.623715  0.440890  1
  Nd  Nd5  1  0.808348  0.123781  0.059089  1
  Nd  Nd6  1  0.245882  0.377908  0.904018  1
  Nd  Nd7  1  0.245811  0.122096  0.404214  1
  Os  Os8  1  0.236318  0.622949  0.670045  1
  Os  Os9  1  0.740685  0.623795  0.833921  1
  Os  Os10  1  0.240467  0.123807  0.666144  1
  Os  Os11  1  0.236575  0.876899  0.169987  1
  Os  Os12  1  0.240357  0.376167  0.166206  1
  Os  Os13  1  0.736499  0.123149  0.830050  1
  Os  Os14  1  0.736572  0.376954  0.330079  1
  Os  Os15  1  0.740174  0.876199  0.333730  1
  O  O16  1  0.540401  0.157603  0.605889  1
  O  O17  1  0.040612  0.842450  0.394028  1
  O  O18  1  0.517637  0.602739  0.582024  1
  O  O19  1  0.040374  0.657605  0.894098  1
  O  O20  1  0.540114  0.345002  0.439630  1
  O  O21  1  0.556494  0.599587  0.949714  1
  O  O22  1  0.332531  0.626256  0.168485  1
  O  O23  1  0.444424  0.580777  0.768847  1
  O  O24  1  0.017375  0.397385  0.417925  1
  O  O25  1  0.658200  0.874438  0.838418  1
  O  O26  1  0.417031  0.178487  0.777199  1
  O  O27  1  0.832698  0.126303  0.331501  1
  O  O28  1  0.539979  0.155103  0.939630  1
  O  O29  1  0.832812  0.373927  0.831494  1
  O  O30  1  0.056522  0.099556  0.550291  1
  O  O31  1  0.158174  0.374546  0.661582  1
  O  O32  1  0.040121  0.845014  0.060427  1
  O  O33  1  0.658505  0.625373  0.338365  1
  O  O34  1  0.540471  0.342518  0.105974  1
  O  O35  1  0.417260  0.321310  0.277177  1
  O  O36  1  0.916917  0.678568  0.722758  1
  O  O37  1  0.944596  0.080852  0.731150  1
  O  O38  1  0.517229  0.897425  0.082129  1
  O  O39  1  0.158788  0.125417  0.161655  1
  O  O40  1  0.917395  0.821456  0.222824  1
  O  O41  1  0.556627  0.900489  0.449689  1
  O  O42  1  0.332887  0.873909  0.668483  1
  O  O43  1  0.056570  0.400448  0.050276  1
  O  O44  1  0.944693  0.418934  0.231354  1
  O  O45  1  0.039883  0.655157  0.560318  1
  O  O46  1  0.017483  0.102701  0.917920  1
  O  O47  1  0.444683  0.918634  0.268558  1
