# generated using pymatgen
data_Nd2ReC2
_symmetry_space_group_name_H-M   'P 1'
_cell_length_a   6.71302459
_cell_length_b   5.36437684
_cell_length_c   10.22101859
_cell_angle_alpha   90.00052803
_cell_angle_beta   89.99976529
_cell_angle_gamma   89.99894623
_symmetry_Int_Tables_number   1
_chemical_formula_structural   Nd2ReC2
_chemical_formula_sum   'Nd8 Re4 C8'
_cell_volume   368.07107957
_cell_formula_units_Z   4
loop_
 _symmetry_equiv_pos_site_id
 _symmetry_equiv_pos_as_xyz
  1  'x, y, z'
loop_
 _atom_site_type_symbol
 _atom_site_label
 _atom_site_symmetry_multiplicity
 _atom_site_fract_x
 _atom_site_fract_y
 _atom_site_fract_z
 _atom_site_occupancy
  Nd  Nd0  1  0.474017  0.249992  0.785721  1
  Nd  Nd1  1  0.025982  0.749998  0.285730  1
  Nd  Nd2  1  0.974003  0.250001  0.714266  1
  Nd  Nd3  1  0.525993  0.750006  0.214274  1
  Nd  Nd4  1  0.811556  0.250006  0.050729  1
  Nd  Nd5  1  0.688438  0.749988  0.550717  1
  Nd  Nd6  1  0.311559  0.250005  0.449283  1
  Nd  Nd7  1  0.188443  0.749984  0.949275  1
  Re  Re8  1  0.270181  0.249996  0.141825  1
  Re  Re9  1  0.229842  0.750005  0.641791  1
  Re  Re10  1  0.770166  0.250001  0.358191  1
  Re  Re11  1  0.729822  0.750000  0.858197  1
  C  C12  1  0.686411  0.250008  0.538364  1
  C  C13  1  0.813594  0.750005  0.038361  1
  C  C14  1  0.186403  0.250005  0.961627  1
  C  C15  1  0.313592  0.749998  0.461650  1
  C  C16  1  0.034223  0.249998  0.258191  1
  C  C17  1  0.465764  0.750000  0.758193  1
  C  C18  1  0.534240  0.250007  0.241807  1
  C  C19  1  0.965775  0.749998  0.741809  1
