# generated using pymatgen
data_Nd2WO6
_symmetry_space_group_name_H-M   'P 1'
_cell_length_a   5.59763827
_cell_length_b   10.16551339
_cell_length_c   10.16551339
_cell_angle_alpha   69.03572963
_cell_angle_beta   75.88582345
_cell_angle_gamma   75.88582339
_symmetry_Int_Tables_number   1
_chemical_formula_structural   Nd2WO6
_chemical_formula_sum   'Nd8 W4 O24'
_cell_volume   515.95725525
_cell_formula_units_Z   4
loop_
 _symmetry_equiv_pos_site_id
 _symmetry_equiv_pos_as_xyz
  1  'x, y, z'
loop_
 _atom_site_type_symbol
 _atom_site_label
 _atom_site_symmetry_multiplicity
 _atom_site_fract_x
 _atom_site_fract_y
 _atom_site_fract_z
 _atom_site_occupancy
  O  O0  1  0.123408  0.616157  0.178032  1
  O  O1  1  0.376592  0.821968  0.383843  1
  O  O2  1  0.876592  0.383843  0.821967  1
  O  O3  1  0.623407  0.178032  0.616157  1
  O  O4  1  0.728457  0.472290  0.061613  1
  O  O5  1  0.771543  0.938387  0.527710  1
  O  O6  1  0.271544  0.527710  0.938387  1
  O  O7  1  0.228457  0.061612  0.472290  1
  O  O8  1  0.360360  0.322133  0.215451  1
  O  O9  1  0.139640  0.784549  0.677867  1
  O  O10  1  0.639641  0.677867  0.784549  1
  O  O11  1  0.860359  0.215450  0.322133  1
  O  O12  1  0.076993  0.893357  0.922128  1
  O  O13  1  0.423007  0.077872  0.106642  1
  O  O14  1  0.923006  0.106643  0.077872  1
  O  O15  1  0.576994  0.922128  0.893358  1
  O  O16  1  0.078031  0.159944  0.681494  1
  O  O17  1  0.421969  0.318507  0.840056  1
  O  O18  1  0.479794  0.456961  0.382738  1
  O  O19  1  0.578030  0.681493  0.159944  1
  O  O20  1  0.979793  0.382738  0.456961  1
  O  O21  1  0.520207  0.543040  0.617261  1
  O  O22  1  0.020207  0.617262  0.543039  1
  O  O23  1  0.921970  0.840056  0.318506  1
  Nd  Nd24  1  0.750000  0.107715  0.892285  1
  Nd  Nd25  1  0.250001  0.892285  0.107715  1
  Nd  Nd26  1  0.614605  0.060894  0.289116  1
  Nd  Nd27  1  0.885394  0.710885  0.939106  1
  Nd  Nd28  1  0.385393  0.939106  0.710884  1
  Nd  Nd29  1  0.114607  0.289116  0.060894  1
  Nd  Nd30  1  0.250001  0.370056  0.629944  1
  Nd  Nd31  1  0.750000  0.629943  0.370057  1
  W  W32  1  0.564175  0.502351  0.802698  1
  W  W33  1  0.935826  0.197301  0.497649  1
  W  W34  1  0.435826  0.497650  0.197302  1
  W  W35  1  0.064175  0.802698  0.502351  1
