# generated using pymatgen
data_Nd2W2O9
_symmetry_space_group_name_H-M   'P 1'
_cell_length_a   7.79134392
_cell_length_b   9.36813610
_cell_length_c   10.00434952
_cell_angle_alpha   90.00000000
_cell_angle_beta   90.00000000
_cell_angle_gamma   107.70675484
_symmetry_Int_Tables_number   1
_chemical_formula_structural   Nd2W2O9
_chemical_formula_sum   'Nd8 W8 O36'
_cell_volume   695.62740797
_cell_formula_units_Z   4
loop_
 _symmetry_equiv_pos_site_id
 _symmetry_equiv_pos_as_xyz
  1  'x, y, z'
loop_
 _atom_site_type_symbol
 _atom_site_label
 _atom_site_symmetry_multiplicity
 _atom_site_fract_x
 _atom_site_fract_y
 _atom_site_fract_z
 _atom_site_occupancy
  Nd  Nd0  1  0.712514  0.425220  0.449253  1
  Nd  Nd1  1  0.712514  0.925220  0.050747  1
  Nd  Nd2  1  0.226601  0.152286  0.554520  1
  Nd  Nd3  1  0.773399  0.347714  0.054520  1
  Nd  Nd4  1  0.226601  0.652286  0.945480  1
  Nd  Nd5  1  0.773399  0.847714  0.445480  1
  Nd  Nd6  1  0.287486  0.074780  0.949253  1
  Nd  Nd7  1  0.287486  0.574780  0.550747  1
  W  W8  1  0.071622  0.738276  0.251123  1
  W  W9  1  0.578669  0.966485  0.730539  1
  W  W10  1  0.928378  0.261724  0.748877  1
  W  W11  1  0.578669  0.466485  0.769461  1
  W  W12  1  0.071622  0.238276  0.248877  1
  W  W13  1  0.928378  0.761724  0.751123  1
  W  W14  1  0.421331  0.033515  0.269461  1
  W  W15  1  0.421331  0.533515  0.230539  1
  O  O16  1  0.056440  0.346479  0.592257  1
  O  O17  1  0.734799  0.638101  0.634433  1
  O  O18  1  0.265201  0.861899  0.134433  1
  O  O19  1  0.409640  0.069850  0.708206  1
  O  O20  1  0.554278  0.608812  0.395932  1
  O  O21  1  0.590360  0.930150  0.291794  1
  O  O22  1  0.005788  0.903733  0.618405  1
  O  O23  1  0.774635  0.082544  0.622243  1
  O  O24  1  0.898314  0.837009  0.217523  1
  O  O25  1  0.898314  0.337009  0.282477  1
  O  O26  1  0.445722  0.391188  0.604068  1
  O  O27  1  0.554278  0.108812  0.104068  1
  O  O28  1  0.774635  0.582544  0.877757  1
  O  O29  1  0.943560  0.153521  0.092257  1
  O  O30  1  0.943560  0.653521  0.407743  1
  O  O31  1  0.225365  0.417456  0.122243  1
  O  O32  1  0.498783  0.175465  0.402338  1
  O  O33  1  0.225365  0.917456  0.377757  1
  O  O34  1  0.498783  0.675465  0.097662  1
  O  O35  1  0.501217  0.824535  0.597662  1
  O  O36  1  0.994212  0.596267  0.118405  1
  O  O37  1  0.056440  0.846479  0.907743  1
  O  O38  1  0.743939  0.360910  0.685147  1
  O  O39  1  0.590360  0.430150  0.208206  1
  O  O40  1  0.734799  0.138101  0.865567  1
  O  O41  1  0.265201  0.361899  0.365567  1
  O  O42  1  0.256061  0.639090  0.314853  1
  O  O43  1  0.501217  0.324535  0.902338  1
  O  O44  1  0.743939  0.860910  0.814853  1
  O  O45  1  0.445722  0.891188  0.895932  1
  O  O46  1  0.409640  0.569850  0.791794  1
  O  O47  1  0.005788  0.403733  0.881595  1
  O  O48  1  0.101686  0.662991  0.717523  1
  O  O49  1  0.994212  0.096267  0.381595  1
  O  O50  1  0.101686  0.162991  0.782477  1
  O  O51  1  0.256061  0.139090  0.185147  1
