# generated using pymatgen
data_Ni6Mo6C
_symmetry_space_group_name_H-M   'P 1'
_cell_length_a   7.71503760
_cell_length_b   7.71503760
_cell_length_c   7.71503759
_cell_angle_alpha   60.00000000
_cell_angle_beta   59.99999999
_cell_angle_gamma   59.99999997
_symmetry_Int_Tables_number   1
_chemical_formula_structural   Ni6Mo6C
_chemical_formula_sum   'Ni12 Mo12 C2'
_cell_volume   324.71260083
_cell_formula_units_Z   2
loop_
 _symmetry_equiv_pos_site_id
 _symmetry_equiv_pos_as_xyz
  1  'x, y, z'
loop_
 _atom_site_type_symbol
 _atom_site_label
 _atom_site_symmetry_multiplicity
 _atom_site_fract_x
 _atom_site_fract_y
 _atom_site_fract_z
 _atom_site_occupancy
  C  C0  1  0.125000  0.125000  0.125000  1
  C  C1  1  0.875000  0.875000  0.875000  1
  Ni  Ni2  1  0.291463  0.291463  0.625612  1
  Ni  Ni3  1  0.291463  0.625612  0.291463  1
  Ni  Ni4  1  0.374388  0.708537  0.708537  1
  Ni  Ni5  1  0.708537  0.374388  0.708537  1
  Ni  Ni6  1  0.625612  0.291463  0.291463  1
  Ni  Ni7  1  0.291463  0.291463  0.291463  1
  Ni  Ni8  1  0.500000  0.500000  0.500000  1
  Ni  Ni9  1  0.500000  0.500000  0.000000  1
  Ni  Ni10  1  0.000000  0.500000  0.500000  1
  Ni  Ni11  1  0.500000  0.000000  0.500000  1
  Ni  Ni12  1  0.708537  0.708537  0.374388  1
  Ni  Ni13  1  0.708537  0.708537  0.708537  1
  Mo  Mo14  1  0.323067  0.323067  0.926933  1
  Mo  Mo15  1  0.926933  0.323067  0.323067  1
  Mo  Mo16  1  0.926933  0.323067  0.926933  1
  Mo  Mo17  1  0.323067  0.926933  0.323067  1
  Mo  Mo18  1  0.073067  0.676933  0.073067  1
  Mo  Mo19  1  0.073067  0.073067  0.676933  1
  Mo  Mo20  1  0.676933  0.676933  0.073067  1
  Mo  Mo21  1  0.676933  0.073067  0.676933  1
  Mo  Mo22  1  0.323067  0.926933  0.926933  1
  Mo  Mo23  1  0.073067  0.676933  0.676933  1
  Mo  Mo24  1  0.676933  0.073067  0.073067  1
  Mo  Mo25  1  0.926933  0.926933  0.323067  1
