# generated using pymatgen
data_Co3W3N
_symmetry_space_group_name_H-M   'P 1'
_cell_length_a   7.81373508
_cell_length_b   7.81373471
_cell_length_c   7.81373515
_cell_angle_alpha   59.99999809
_cell_angle_beta   59.99999964
_cell_angle_gamma   59.99999818
_symmetry_Int_Tables_number   1
_chemical_formula_structural   Co3W3N
_chemical_formula_sum   'Co12 W12 N4'
_cell_volume   337.33470191
_cell_formula_units_Z   4
loop_
 _symmetry_equiv_pos_site_id
 _symmetry_equiv_pos_as_xyz
  1  'x, y, z'
loop_
 _atom_site_type_symbol
 _atom_site_label
 _atom_site_symmetry_multiplicity
 _atom_site_fract_x
 _atom_site_fract_y
 _atom_site_fract_z
 _atom_site_occupancy
  Co  Co0  1  0.293403  0.293403  0.293403  1
  Co  Co1  1  0.706597  0.706597  0.380210  1
  Co  Co2  1  0.380210  0.706597  0.706597  1
  Co  Co3  1  0.706597  0.380210  0.706597  1
  Co  Co4  1  0.619790  0.293403  0.293403  1
  Co  Co5  1  0.293403  0.619790  0.293403  1
  Co  Co6  1  0.293403  0.293403  0.619790  1
  Co  Co7  1  0.706597  0.706597  0.706597  1
  Co  Co8  1  0.500000  0.500000  0.500000  1
  Co  Co9  1  0.500000  0.500000  0.000000  1
  Co  Co10  1  0.000000  0.500000  0.500000  1
  Co  Co11  1  0.500000  0.000000  0.500000  1
  N  N12  1  0.000000  0.000000  0.000000  1
  N  N13  1  0.000000  0.000000  0.500000  1
  N  N14  1  0.500000  0.000000  0.000000  1
  N  N15  1  0.000000  0.500000  0.000000  1
  W  W16  1  0.670762  0.079238  0.079238  1
  W  W17  1  0.920762  0.920762  0.329238  1
  W  W18  1  0.329238  0.329238  0.920762  1
  W  W19  1  0.920762  0.329238  0.329238  1
  W  W20  1  0.920762  0.329238  0.920762  1
  W  W21  1  0.329238  0.920762  0.329238  1
  W  W22  1  0.079238  0.670762  0.079238  1
  W  W23  1  0.079238  0.079238  0.670762  1
  W  W24  1  0.670762  0.670762  0.079238  1
  W  W25  1  0.670762  0.079238  0.670762  1
  W  W26  1  0.329238  0.920762  0.920762  1
  W  W27  1  0.079238  0.670762  0.670762  1
