# generated using pymatgen
data_Ni3Mo3C
_symmetry_space_group_name_H-M   'P 1'
_cell_length_a   7.82597355
_cell_length_b   7.82597358
_cell_length_c   7.82597397
_cell_angle_alpha   59.99999838
_cell_angle_beta   59.99999828
_cell_angle_gamma   59.99999654
_symmetry_Int_Tables_number   1
_chemical_formula_structural   Ni3Mo3C
_chemical_formula_sum   'Ni12 Mo12 C4'
_cell_volume   338.92228998
_cell_formula_units_Z   4
loop_
 _symmetry_equiv_pos_site_id
 _symmetry_equiv_pos_as_xyz
  1  'x, y, z'
loop_
 _atom_site_type_symbol
 _atom_site_label
 _atom_site_symmetry_multiplicity
 _atom_site_fract_x
 _atom_site_fract_y
 _atom_site_fract_z
 _atom_site_occupancy
  Ni  Ni0  1  0.624880  0.291707  0.291707  1
  Ni  Ni1  1  0.000000  0.500000  0.500000  1
  Ni  Ni2  1  0.708293  0.375120  0.708293  1
  Ni  Ni3  1  0.375120  0.708293  0.708293  1
  Ni  Ni4  1  0.500000  0.500000  0.000000  1
  Ni  Ni5  1  0.291707  0.624880  0.291707  1
  Ni  Ni6  1  0.708293  0.708293  0.708293  1
  Ni  Ni7  1  0.291707  0.291707  0.291707  1
  Ni  Ni8  1  0.500000  0.500000  0.500000  1
  Ni  Ni9  1  0.708293  0.708293  0.375120  1
  Ni  Ni10  1  0.291707  0.291707  0.624880  1
  Ni  Ni11  1  0.500000  0.000000  0.500000  1
  Mo  Mo12  1  0.327953  0.922047  0.922047  1
  Mo  Mo13  1  0.327953  0.922047  0.327953  1
  Mo  Mo14  1  0.077953  0.672047  0.672047  1
  Mo  Mo15  1  0.327953  0.327953  0.922047  1
  Mo  Mo16  1  0.672047  0.077953  0.077953  1
  Mo  Mo17  1  0.077953  0.672047  0.077953  1
  Mo  Mo18  1  0.922047  0.922047  0.327953  1
  Mo  Mo19  1  0.672047  0.077953  0.672047  1
  Mo  Mo20  1  0.922047  0.327953  0.922047  1
  Mo  Mo21  1  0.922047  0.327953  0.327953  1
  Mo  Mo22  1  0.672047  0.672047  0.077953  1
  Mo  Mo23  1  0.077953  0.077953  0.672047  1
  C  C24  1  0.500000  0.000000  0.000000  1
  C  C25  1  0.000000  0.500000  0.000000  1
  C  C26  1  0.000000  0.000000  0.500000  1
  C  C27  1  0.000000  0.000000  0.000000  1
