# generated using pymatgen
data_Co7(RuO6)2
_symmetry_space_group_name_H-M   'P 1'
_cell_length_a   5.96225655
_cell_length_b   17.91480570
_cell_length_c   15.78039456
_cell_angle_alpha   19.11214178
_cell_angle_beta   53.83074022
_cell_angle_gamma   57.74787830
_symmetry_Int_Tables_number   1
_chemical_formula_structural   Co7(RuO6)2
_chemical_formula_sum   'Co14 Ru4 O24'
_cell_volume   443.67894319
_cell_formula_units_Z   2
loop_
 _symmetry_equiv_pos_site_id
 _symmetry_equiv_pos_as_xyz
  1  'x, y, z'
loop_
 _atom_site_type_symbol
 _atom_site_label
 _atom_site_symmetry_multiplicity
 _atom_site_fract_x
 _atom_site_fract_y
 _atom_site_fract_z
 _atom_site_occupancy
  Co  Co0  1  0.126587  0.296735  0.111527  1
  Co  Co1  1  0.500593  0.155165  0.012510  1
  Co  Co2  1  0.501254  0.510460  0.990184  1
  Co  Co3  1  0.114786  0.610789  0.144333  1
  Co  Co4  1  0.510446  0.173737  0.493029  1
  Co  Co5  1  0.500547  0.835977  0.996119  1
  Co  Co6  1  0.133137  0.966783  0.115229  1
  Co  Co7  1  0.499500  0.335182  0.495557  1
  Co  Co8  1  0.490630  0.495040  0.502985  1
  Co  Co9  1  0.890239  0.066129  0.842519  1
  Co  Co10  1  0.500396  0.832890  0.501136  1
  Co  Co11  1  0.876522  0.371185  0.887539  1
  Co  Co12  1  0.001372  0.833550  0.499505  1
  Co  Co13  1  0.864384  0.703486  0.881270  1
  Ru  Ru14  1  0.472750  0.008979  0.501008  1
  Ru  Ru15  1  0.025251  0.164207  0.494372  1
  Ru  Ru16  1  0.530937  0.659312  0.496985  1
  Ru  Ru17  1  0.974787  0.506690  0.501135  1
  O  O18  1  0.261762  0.064996  0.257223  1
  O  O19  1  0.270492  0.285207  0.212770  1
  O  O20  1  0.715007  0.065304  0.286491  1
  O  O21  1  0.274837  0.396062  0.260278  1
  O  O22  1  0.709241  0.254579  0.255538  1
  O  O23  1  0.298417  0.106597  0.714431  1
  O  O24  1  0.246286  0.567210  0.278343  1
  O  O25  1  0.253646  0.274488  0.713416  1
  O  O26  1  0.733831  0.385105  0.288278  1
  O  O27  1  0.232153  0.731503  0.266812  1
  O  O28  1  0.711715  0.568409  0.265058  1
  O  O29  1  0.753757  0.104419  0.714339  1
  O  O30  1  0.290854  0.409607  0.752425  1
  O  O31  1  0.293683  0.922634  0.240480  1
  O  O32  1  0.745354  0.747757  0.247059  1
  O  O33  1  0.284357  0.601731  0.713729  1
  O  O34  1  0.737332  0.264154  0.748627  1
  O  O35  1  0.727805  0.912818  0.252986  1
  O  O36  1  0.732477  0.383636  0.785516  1
  O  O37  1  0.270167  0.750665  0.752376  1
  O  O38  1  0.738276  0.600804  0.745204  1
  O  O39  1  0.273210  0.938324  0.733465  1
  O  O40  1  0.706860  0.745775  0.757299  1
  O  O41  1  0.756366  0.950177  0.714494  1
