# generated using pymatgen
data_Ni(Pt3O4)4
_symmetry_space_group_name_H-M   'P 1'
_cell_length_a   8.02621617
_cell_length_b   8.02621617
_cell_length_c   8.02621617
_cell_angle_alpha   60.00000000
_cell_angle_beta   60.00000000
_cell_angle_gamma   90.00000000
_symmetry_Int_Tables_number   1
_chemical_formula_structural   Ni(Pt3O4)4
_chemical_formula_sum   'Ni1 Pt12 O16'
_cell_volume   365.60957342
_cell_formula_units_Z   1
loop_
 _symmetry_equiv_pos_site_id
 _symmetry_equiv_pos_as_xyz
  1  'x, y, z'
loop_
 _atom_site_type_symbol
 _atom_site_label
 _atom_site_symmetry_multiplicity
 _atom_site_fract_x
 _atom_site_fract_y
 _atom_site_fract_z
 _atom_site_occupancy
  Ni  Ni0  1  0.250000  0.750000  0.500000  1
  Pt  Pt1  1  0.122952  0.374240  0.002808  1
  Pt  Pt2  1  0.377048  0.125760  0.997192  1
  Pt  Pt3  1  0.122952  0.125760  0.500000  1
  Pt  Pt4  1  0.122952  0.622952  0.251289  1
  Pt  Pt5  1  0.625760  0.125760  0.251289  1
  Pt  Pt6  1  0.377048  0.374240  0.500000  1
  Pt  Pt7  1  0.625760  0.877048  0.997192  1
  Pt  Pt8  1  0.874240  0.622952  0.002808  1
  Pt  Pt9  1  0.625760  0.622952  0.500000  1
  Pt  Pt10  1  0.874240  0.374240  0.748711  1
  Pt  Pt11  1  0.377048  0.877048  0.748711  1
  Pt  Pt12  1  0.874240  0.877048  0.500000  1
  O  O13  1  0.363658  0.090975  0.272683  1
  O  O14  1  0.134058  0.378020  0.243962  1
  O  O15  1  0.363658  0.636342  0.272683  1
  O  O16  1  0.136342  0.863658  0.272683  1
  O  O17  1  0.878020  0.121980  0.243962  1
  O  O18  1  0.621980  0.378020  0.243962  1
  O  O19  1  0.365942  0.121980  0.756038  1
  O  O20  1  0.136342  0.409025  0.727317  1
  O  O21  1  0.621980  0.378020  0.756038  1
  O  O22  1  0.878020  0.634058  0.243962  1
  O  O23  1  0.878020  0.121980  0.756038  1
  O  O24  1  0.590975  0.863658  0.272683  1
  O  O25  1  0.363658  0.636342  0.727317  1
  O  O26  1  0.136342  0.863658  0.727317  1
  O  O27  1  0.621980  0.865942  0.756038  1
  O  O28  1  0.909025  0.636342  0.727317  1
