# generated using pymatgen
data_Ni(RhO2)2
_symmetry_space_group_name_H-M   'P 1'
_cell_length_a   6.14352097
_cell_length_b   6.14352097
_cell_length_c   6.06438361
_cell_angle_alpha   120.43262207
_cell_angle_beta   120.43262213
_cell_angle_gamma   90.00000000
_symmetry_Int_Tables_number   1
_chemical_formula_structural   Ni(RhO2)2
_chemical_formula_sum   'Ni2 Rh4 O8'
_cell_volume   159.70767147
_cell_formula_units_Z   2
loop_
 _symmetry_equiv_pos_site_id
 _symmetry_equiv_pos_as_xyz
  1  'x, y, z'
loop_
 _atom_site_type_symbol
 _atom_site_label
 _atom_site_symmetry_multiplicity
 _atom_site_fract_x
 _atom_site_fract_y
 _atom_site_fract_z
 _atom_site_occupancy
  O  O0  1  0.256569  0.732144  0.513140  1
  O  O1  1  0.719003  0.743430  0.986861  1
  O  O2  1  0.267858  0.743430  0.986861  1
  O  O3  1  0.743431  0.267858  0.486862  1
  O  O4  1  0.743429  0.719002  0.486860  1
  O  O5  1  0.280997  0.256570  0.013140  1
  O  O6  1  0.256571  0.280998  0.513140  1
  O  O7  1  0.732142  0.256570  0.013140  1
  Ni  Ni8  1  0.125000  0.874999  0.250000  1
  Ni  Ni9  1  0.875000  0.125001  0.750001  1
  Rh  Rh10  1  0.500000  0.500001  0.000000  1
  Rh  Rh11  1  0.000000  0.500000  0.500001  1
  Rh  Rh12  1  0.500000  0.500000  0.499999  1
  Rh  Rh13  1  0.500000  0.000000  0.000000  1
