# generated using pymatgen
data_Co9Ru3O16
_symmetry_space_group_name_H-M   'P 1'
_cell_length_a   6.01323712
_cell_length_b   12.01395781
_cell_length_c   16.07056823
_cell_angle_alpha   40.96206076
_cell_angle_beta   55.57670823
_cell_angle_gamma   60.21363166
_symmetry_Int_Tables_number   1
_chemical_formula_structural   Co9Ru3O16
_chemical_formula_sum   'Co18 Ru6 O32'
_cell_volume   622.54848756
_cell_formula_units_Z   2
loop_
 _symmetry_equiv_pos_site_id
 _symmetry_equiv_pos_as_xyz
  1  'x, y, z'
loop_
 _atom_site_type_symbol
 _atom_site_label
 _atom_site_symmetry_multiplicity
 _atom_site_fract_x
 _atom_site_fract_y
 _atom_site_fract_z
 _atom_site_occupancy
  Co  Co0  1  0.141238  0.034315  0.051263  1
  Co  Co1  1  0.137454  0.532280  0.055672  1
  Co  Co2  1  0.492576  0.126503  0.254200  1
  Co  Co3  1  0.500000  0.375000  0.250000  1
  Co  Co4  1  0.127410  0.299584  0.548747  1
  Co  Co5  1  0.987183  0.125560  0.254301  1
  Co  Co6  1  0.507424  0.623497  0.245800  1
  Co  Co7  1  0.000000  0.375000  0.750000  1
  Co  Co8  1  0.499562  0.133286  0.745549  1
  Co  Co9  1  0.114294  0.786713  0.557819  1
  Co  Co10  1  0.862546  0.217720  0.444328  1
  Co  Co11  1  0.012817  0.624440  0.245699  1
  Co  Co12  1  0.500000  0.375000  0.750000  1
  Co  Co13  1  0.500438  0.616714  0.754451  1
  Co  Co14  1  0.858762  0.715685  0.448737  1
  Co  Co15  1  0.500000  0.875000  0.750000  1
  Co  Co16  1  0.872590  0.450416  0.951253  1
  Co  Co17  1  0.885706  0.963287  0.942181  1
  O  O18  1  0.262519  0.057375  0.129342  1
  O  O19  1  0.268308  0.295138  0.123569  1
  O  O20  1  0.736127  0.061269  0.126006  1
  O  O21  1  0.262147  0.172213  0.386995  1
  O  O22  1  0.280093  0.575739  0.112629  1
  O  O23  1  0.731915  0.294759  0.148295  1
  O  O24  1  0.243644  0.056315  0.627668  1
  O  O25  1  0.281052  0.802718  0.112893  1
  O  O26  1  0.268085  0.455241  0.351705  1
  O  O27  1  0.719907  0.174261  0.387371  1
  O  O28  1  0.737853  0.577787  0.113005  1
  O  O29  1  0.265855  0.329364  0.616933  1
  O  O30  1  0.263873  0.688730  0.373994  1
  O  O31  1  0.749634  0.044605  0.644896  1
  O  O32  1  0.731692  0.454862  0.376431  1
  O  O33  1  0.736917  0.801476  0.143687  1
  O  O34  1  0.268309  0.211257  0.852778  1
  O  O35  1  0.274773  0.556394  0.617803  1
  O  O36  1  0.263083  0.948524  0.356313  1
  O  O37  1  0.737481  0.692624  0.370658  1
  O  O38  1  0.722109  0.332834  0.617095  1
  O  O39  1  0.277891  0.417166  0.882905  1
  O  O40  1  0.243066  0.815024  0.630369  1
  O  O41  1  0.718948  0.947282  0.387107  1
  O  O42  1  0.725227  0.193607  0.882197  1
  O  O43  1  0.731691  0.538742  0.647222  1
  O  O44  1  0.250366  0.705395  0.855104  1
  O  O45  1  0.734145  0.420636  0.883067  1
  O  O46  1  0.712004  0.819549  0.627495  1
  O  O47  1  0.287996  0.930451  0.872505  1
  O  O48  1  0.756356  0.693685  0.872332  1
  O  O49  1  0.756934  0.934976  0.869631  1
  Ru  Ru50  1  0.501207  0.241748  0.004866  1
  Ru  Ru51  1  0.515727  0.750484  0.993834  1
  Ru  Ru52  1  0.498793  0.508252  0.495134  1
  Ru  Ru53  1  0.500000  0.875000  0.250000  1
  Ru  Ru54  1  0.484273  0.999516  0.506166  1
  Ru  Ru55  1  0.000000  0.875000  0.750000  1
