# generated using pymatgen
data_Ni3Hg
_symmetry_space_group_name_H-M   'P 1'
_cell_length_a   5.33624659
_cell_length_b   5.33636581
_cell_length_c   4.27024999
_cell_angle_alpha   90.00721392
_cell_angle_beta   89.99064306
_cell_angle_gamma   119.97628734
_symmetry_Int_Tables_number   1
_chemical_formula_structural   Ni3Hg
_chemical_formula_sum   'Ni6 Hg2'
_cell_volume   105.33413458
_cell_formula_units_Z   2
loop_
 _symmetry_equiv_pos_site_id
 _symmetry_equiv_pos_as_xyz
  1  'x, y, z'
loop_
 _atom_site_type_symbol
 _atom_site_label
 _atom_site_symmetry_multiplicity
 _atom_site_fract_x
 _atom_site_fract_y
 _atom_site_fract_z
 _atom_site_occupancy
  Ni  Ni0  1  0.155589  0.311177  0.249988  1
  Ni  Ni1  1  0.688772  0.844406  0.250019  1
  Ni  Ni2  1  0.155555  0.844471  0.250008  1
  Ni  Ni3  1  0.844346  0.688668  0.750015  1
  Ni  Ni4  1  0.311255  0.155635  0.749984  1
  Ni  Ni5  1  0.844434  0.155592  0.749995  1
  Hg  Hg6  1  0.333351  0.666706  0.750003  1
  Hg  Hg7  1  0.666702  0.333349  0.249999  1
