# generated using pymatgen
data_Ni2Mo4C
_symmetry_space_group_name_H-M   'P 1'
_cell_length_a   7.99947486
_cell_length_b   7.99947486
_cell_length_c   7.99947485
_cell_angle_alpha   59.99999999
_cell_angle_beta   59.99999998
_cell_angle_gamma   60.00000000
_symmetry_Int_Tables_number   1
_chemical_formula_structural   Ni2Mo4C
_chemical_formula_sum   'Ni8 Mo16 C4'
_cell_volume   361.96738039
_cell_formula_units_Z   4
loop_
 _symmetry_equiv_pos_site_id
 _symmetry_equiv_pos_as_xyz
  1  'x, y, z'
loop_
 _atom_site_type_symbol
 _atom_site_label
 _atom_site_symmetry_multiplicity
 _atom_site_fract_x
 _atom_site_fract_y
 _atom_site_fract_z
 _atom_site_occupancy
  C  C0  1  0.000000  0.500000  0.000000  1
  C  C1  1  0.000000  0.000000  0.500000  1
  C  C2  1  0.500000  0.000000  0.000000  1
  C  C3  1  0.000000  0.000000  0.000000  1
  Ni  Ni4  1  0.707896  0.707896  0.376312  1
  Ni  Ni5  1  0.292104  0.623688  0.292104  1
  Ni  Ni6  1  0.376312  0.707896  0.707896  1
  Ni  Ni7  1  0.292104  0.292104  0.292104  1
  Ni  Ni8  1  0.623688  0.292104  0.292104  1
  Ni  Ni9  1  0.292104  0.292104  0.623688  1
  Ni  Ni10  1  0.707896  0.376312  0.707896  1
  Ni  Ni11  1  0.707896  0.707896  0.707896  1
  Mo  Mo12  1  0.500000  0.000000  0.500000  1
  Mo  Mo13  1  0.935325  0.935325  0.314675  1
  Mo  Mo14  1  0.685325  0.064675  0.064675  1
  Mo  Mo15  1  0.935325  0.314675  0.314675  1
  Mo  Mo16  1  0.935325  0.314675  0.935325  1
  Mo  Mo17  1  0.314675  0.935325  0.314675  1
  Mo  Mo18  1  0.064675  0.685325  0.064675  1
  Mo  Mo19  1  0.064675  0.064675  0.685325  1
  Mo  Mo20  1  0.685325  0.685325  0.064675  1
  Mo  Mo21  1  0.685325  0.064675  0.685325  1
  Mo  Mo22  1  0.314675  0.935325  0.935325  1
  Mo  Mo23  1  0.064675  0.685325  0.685325  1
  Mo  Mo24  1  0.000000  0.500000  0.500000  1
  Mo  Mo25  1  0.500000  0.500000  0.000000  1
  Mo  Mo26  1  0.500000  0.500000  0.500000  1
  Mo  Mo27  1  0.314675  0.314675  0.935325  1
