# generated using pymatgen
data_PmAu3
_symmetry_space_group_name_H-M   'P 1'
_cell_length_a   6.43817760
_cell_length_b   6.43817758
_cell_length_c   4.84304638
_cell_angle_alpha   90.00000000
_cell_angle_beta   90.00000000
_cell_angle_gamma   120.00000604
_symmetry_Int_Tables_number   1
_chemical_formula_structural   PmAu3
_chemical_formula_sum   'Pm2 Au6'
_cell_volume   173.85017700
_cell_formula_units_Z   2
loop_
 _symmetry_equiv_pos_site_id
 _symmetry_equiv_pos_as_xyz
  1  'x, y, z'
loop_
 _atom_site_type_symbol
 _atom_site_label
 _atom_site_symmetry_multiplicity
 _atom_site_fract_x
 _atom_site_fract_y
 _atom_site_fract_z
 _atom_site_occupancy
  Pm  Pm0  1  0.666667  0.333334  0.249999  1
  Pm  Pm1  1  0.333334  0.666668  0.750000  1
  Au  Au2  1  0.843337  0.156665  0.750000  1
  Au  Au3  1  0.313330  0.156665  0.750000  1
  Au  Au4  1  0.843336  0.686673  0.750000  1
  Au  Au5  1  0.156664  0.843336  0.249999  1
  Au  Au6  1  0.686671  0.843336  0.249999  1
  Au  Au7  1  0.156664  0.313329  0.249999  1
