# generated using pymatgen
data_Pm3Sc
_symmetry_space_group_name_H-M   'P 1'
_cell_length_a   7.21859202
_cell_length_b   7.21859311
_cell_length_c   5.71821017
_cell_angle_alpha   90.00000000
_cell_angle_beta   90.00000000
_cell_angle_gamma   119.99999500
_symmetry_Int_Tables_number   1
_chemical_formula_structural   Pm3Sc
_chemical_formula_sum   'Pm6 Sc2'
_cell_volume   258.04522499
_cell_formula_units_Z   2
loop_
 _symmetry_equiv_pos_site_id
 _symmetry_equiv_pos_as_xyz
  1  'x, y, z'
loop_
 _atom_site_type_symbol
 _atom_site_label
 _atom_site_symmetry_multiplicity
 _atom_site_fract_x
 _atom_site_fract_y
 _atom_site_fract_z
 _atom_site_occupancy
  Pm  Pm0  1  0.169691  0.339382  0.249999  1
  Pm  Pm1  1  0.830311  0.169693  0.749999  1
  Pm  Pm2  1  0.339384  0.169693  0.749999  1
  Pm  Pm3  1  0.660617  0.830309  0.249999  1
  Pm  Pm4  1  0.169692  0.830309  0.249999  1
  Pm  Pm5  1  0.830309  0.660618  0.749999  1
  Sc  Sc6  1  0.666667  0.333332  0.249999  1
  Sc  Sc7  1  0.333334  0.666668  0.749999  1
