# generated using pymatgen
data_Pr5(Mo16O27)2
_symmetry_space_group_name_H-M   'P 1'
_cell_length_a   9.42487705
_cell_length_b   11.17196349
_cell_length_c   24.78504317
_cell_angle_alpha   100.59300066
_cell_angle_beta   90.00000000
_cell_angle_gamma   90.00000000
_symmetry_Int_Tables_number   1
_chemical_formula_structural   Pr5(Mo16O27)2
_chemical_formula_sum   'Pr10 Mo64 O108'
_cell_volume   2565.25037673
_cell_formula_units_Z   2
loop_
 _symmetry_equiv_pos_site_id
 _symmetry_equiv_pos_as_xyz
  1  'x, y, z'
loop_
 _atom_site_type_symbol
 _atom_site_label
 _atom_site_symmetry_multiplicity
 _atom_site_fract_x
 _atom_site_fract_y
 _atom_site_fract_z
 _atom_site_occupancy
  Pr  Pr0  1  0.012229  0.632609  0.095030  1
  Pr  Pr1  1  0.487771  0.132609  0.595030  1
  Pr  Pr2  1  0.043470  0.023105  0.814431  1
  Pr  Pr3  1  0.500000  0.000000  0.000000  1
  Pr  Pr4  1  0.543470  0.476895  0.685569  1
  Pr  Pr5  1  0.987771  0.367391  0.904970  1
  Pr  Pr6  1  0.456530  0.523105  0.314431  1
  Pr  Pr7  1  0.512229  0.867391  0.404970  1
  Pr  Pr8  1  0.956530  0.976895  0.185569  1
  Pr  Pr9  1  0.000000  0.500000  0.500000  1
  Mo  Mo10  1  0.865339  0.313876  0.743151  1
  Mo  Mo11  1  0.864432  0.604313  0.769201  1
  Mo  Mo12  1  0.365339  0.186124  0.756849  1
  Mo  Mo13  1  0.634074  0.268487  0.176293  1
  Mo  Mo14  1  0.365926  0.731513  0.823707  1
  Mo  Mo15  1  0.147100  0.922115  0.514630  1
  Mo  Mo16  1  0.634661  0.813876  0.243151  1
  Mo  Mo17  1  0.135568  0.395687  0.230799  1
  Mo  Mo18  1  0.152923  0.338823  0.672271  1
  Mo  Mo19  1  0.122954  0.517647  0.358654  1
  Mo  Mo20  1  0.346705  0.365544  0.447442  1
  Mo  Mo21  1  0.859206  0.535173  0.201880  1
  Mo  Mo22  1  0.638285  0.347012  0.520888  1
  Mo  Mo23  1  0.145517  0.804472  0.386197  1
  Mo  Mo24  1  0.647817  0.413175  0.077304  1
  Mo  Mo25  1  0.879045  0.720166  0.893162  1
  Mo  Mo26  1  0.361715  0.652988  0.479112  1
  Mo  Mo27  1  0.140794  0.464827  0.798120  1
  Mo  Mo28  1  0.622954  0.982353  0.141346  1
  Mo  Mo29  1  0.847077  0.661177  0.327729  1
  Mo  Mo30  1  0.379045  0.779834  0.606838  1
  Mo  Mo31  1  0.351071  0.129042  0.199531  1
  Mo  Mo32  1  0.865926  0.768487  0.676293  1
  Mo  Mo33  1  0.851071  0.370958  0.300469  1
  Mo  Mo34  1  0.635568  0.104313  0.269201  1
  Mo  Mo35  1  0.352183  0.586825  0.922696  1
  Mo  Mo36  1  0.141171  0.987599  0.075333  1
  Mo  Mo37  1  0.377046  0.017647  0.858654  1
  Mo  Mo38  1  0.134661  0.686124  0.256849  1
  Mo  Mo39  1  0.364432  0.895687  0.730799  1
  Mo  Mo40  1  0.362729  0.715044  0.045061  1
  Mo  Mo41  1  0.640794  0.035173  0.701880  1
  Mo  Mo42  1  0.623712  0.460747  0.855470  1
  Mo  Mo43  1  0.620955  0.220166  0.393162  1
  Mo  Mo44  1  0.358829  0.487599  0.575333  1
  Mo  Mo45  1  0.645517  0.695528  0.113803  1
  Mo  Mo46  1  0.137271  0.215044  0.545061  1
  Mo  Mo47  1  0.652923  0.161177  0.827729  1
  Mo  Mo48  1  0.138285  0.152988  0.979112  1
  Mo  Mo49  1  0.637271  0.284956  0.954939  1
  Mo  Mo50  1  0.354483  0.304472  0.886197  1
  Mo  Mo51  1  0.647100  0.577885  0.985370  1
  Mo  Mo52  1  0.120955  0.279834  0.106838  1
  Mo  Mo53  1  0.854483  0.195528  0.613803  1
  Mo  Mo54  1  0.653295  0.634456  0.552558  1
  Mo  Mo55  1  0.852183  0.913175  0.577304  1
  Mo  Mo56  1  0.352900  0.422115  0.014630  1
  Mo  Mo57  1  0.861715  0.847012  0.020888  1
  Mo  Mo58  1  0.846705  0.134456  0.052558  1
  Mo  Mo59  1  0.134074  0.231513  0.323707  1
  Mo  Mo60  1  0.147817  0.086825  0.422696  1
  Mo  Mo61  1  0.876288  0.960747  0.355470  1
  Mo  Mo62  1  0.123712  0.039253  0.644530  1
  Mo  Mo63  1  0.148929  0.629042  0.699531  1
  Mo  Mo64  1  0.877046  0.482353  0.641346  1
  Mo  Mo65  1  0.153295  0.865544  0.947442  1
  Mo  Mo66  1  0.858829  0.012401  0.924667  1
  Mo  Mo67  1  0.648929  0.870958  0.800469  1
  Mo  Mo68  1  0.852900  0.077885  0.485370  1
  Mo  Mo69  1  0.347077  0.838823  0.172271  1
  Mo  Mo70  1  0.359206  0.964827  0.298120  1
  Mo  Mo71  1  0.641171  0.512401  0.424667  1
  Mo  Mo72  1  0.376288  0.539253  0.144530  1
  Mo  Mo73  1  0.862729  0.784956  0.454939  1
  O  O74  1  0.721203  0.188887  0.543142  1
  O  O75  1  0.241782  0.144925  0.055481  1
  O  O76  1  0.250885  0.388944  0.305616  1
  O  O77  1  0.491829  0.835580  0.102910  1
  O  O78  1  0.987754  0.744347  0.741966  1
  O  O79  1  0.505740  0.617471  0.617548  1
  O  O80  1  0.254247  0.686697  0.120733  1
  O  O81  1  0.508171  0.164420  0.897090  1
  O  O82  1  0.001722  0.264228  0.037520  1
  O  O83  1  0.252411  0.160527  0.832555  1
  O  O84  1  0.243787  0.432850  0.090160  1
  O  O85  1  0.256213  0.932850  0.590160  1
  O  O86  1  0.494260  0.382529  0.382452  1
  O  O87  1  0.745251  0.230042  0.326435  1
  O  O88  1  0.487754  0.755653  0.758034  1
  O  O89  1  0.229547  0.845144  0.243980  1
  O  O90  1  0.747314  0.391700  0.226921  1
  O  O91  1  0.512246  0.244347  0.241966  1
  O  O92  1  0.756213  0.567150  0.909840  1
  O  O93  1  0.245753  0.186697  0.620733  1
  O  O94  1  0.775371  0.956560  0.280023  1
  O  O95  1  0.729547  0.654856  0.256020  1
  O  O96  1  0.745753  0.313303  0.879267  1
  O  O97  1  0.291313  0.018412  0.938514  1
  O  O98  1  0.005740  0.882529  0.882452  1
  O  O99  1  0.247589  0.660527  0.332555  1
  O  O100  1  0.501722  0.235772  0.462480  1
  O  O101  1  0.001662  0.192851  0.681744  1
  O  O102  1  0.221203  0.311113  0.956858  1
  O  O103  1  0.503988  0.179639  0.688813  1
  O  O104  1  0.995076  0.848214  0.093724  1
  O  O105  1  0.215224  0.984040  0.156468  1
  O  O106  1  0.496012  0.820361  0.311187  1
  O  O107  1  0.284776  0.484040  0.656468  1
  O  O108  1  0.275371  0.543440  0.219977  1
  O  O109  1  0.991829  0.664420  0.397090  1
  O  O110  1  0.252686  0.608300  0.773079  1
  O  O111  1  0.717630  0.051047  0.623931  1
  O  O112  1  0.022888  0.082804  0.349917  1
  O  O113  1  0.760821  0.422740  0.002319  1
  O  O114  1  0.760647  0.768930  0.606005  1
  O  O115  1  0.282370  0.948953  0.376069  1
  O  O116  1  0.986453  0.587582  0.840984  1
  O  O117  1  0.477112  0.582804  0.849917  1
  O  O118  1  0.286185  0.876149  0.021020  1
  O  O119  1  0.217630  0.448953  0.876069  1
  O  O120  1  0.743787  0.067150  0.409840  1
  O  O121  1  0.239179  0.577260  -0.002319  1
  O  O122  1  0.245251  0.269958  0.173565  1
  O  O123  1  0.004924  0.151786  0.906276  1
  O  O124  1  0.996012  0.679639  0.188813  1
  O  O125  1  0.784776  0.015960  0.843532  1
  O  O126  1  0.770453  0.154856  0.756020  1
  O  O127  1  0.491441  0.709533  0.975454  1
  O  O128  1  0.758218  0.855075  0.944519  1
  O  O129  1  0.522888  0.417196  0.150083  1
  O  O130  1  0.715224  0.515960  0.343532  1
  O  O131  1  0.495076  0.651786  0.406276  1
  O  O132  1  0.504924  0.348214  0.593724  1
  O  O133  1  0.513547  0.087582  0.340984  1
  O  O134  1  0.008559  0.209533  0.475454  1
  O  O135  1  0.791313  0.481588  0.561486  1
  O  O136  1  0.741782  0.355075  0.444519  1
  O  O137  1  0.498338  0.692851  0.181744  1
  O  O138  1  0.001718  0.632377  0.634038  1
  O  O139  1  0.739179  0.922740  0.502319  1
  O  O140  1  0.012246  0.255653  0.258034  1
  O  O141  1  0.249115  0.888944  0.805616  1
  O  O142  1  0.258218  0.644925  0.555481  1
  O  O143  1  0.486453  0.912418  0.659016  1
  O  O144  1  0.998282  0.367623  0.365962  1
  O  O145  1  0.260647  0.731070  0.893995  1
  O  O146  1  0.498282  0.132377  0.134038  1
  O  O147  1  0.254749  0.769958  0.673565  1
  O  O148  1  0.747589  0.839473  0.167445  1
  O  O149  1  0.754247  0.813303  0.379267  1
  O  O150  1  0.239353  0.231070  0.393995  1
  O  O151  1  0.270453  0.345144  0.743980  1
  O  O152  1  0.752411  0.339473  0.667445  1
  O  O153  1  0.013547  0.412418  0.159016  1
  O  O154  1  0.208687  0.518412  0.438514  1
  O  O155  1  0.260821  0.077260  0.497681  1
  O  O156  1  0.213815  0.376149  0.521020  1
  O  O157  1  0.247314  0.108300  0.273079  1
  O  O158  1  0.977112  0.917196  0.650083  1
  O  O159  1  0.778797  0.688887  0.043142  1
  O  O160  1  0.724629  0.456560  0.780023  1
  O  O161  1  0.708687  0.981588  0.061486  1
  O  O162  1  0.501718  0.867623  0.865962  1
  O  O163  1  0.998278  0.735772  0.962480  1
  O  O164  1  0.739353  0.268930  0.106005  1
  O  O165  1  0.008171  0.335580  0.602910  1
  O  O166  1  0.224629  0.043440  0.719977  1
  O  O167  1  0.003988  0.320361  0.811187  1
  O  O168  1  0.991441  0.790467  0.524546  1
  O  O169  1  0.998338  0.807149  0.318256  1
  O  O170  1  0.278797  0.811113  0.456858  1
  O  O171  1  0.749115  0.611056  0.694384  1
  O  O172  1  0.994260  0.117471  0.117548  1
  O  O173  1  0.782370  0.551047  0.123931  1
  O  O174  1  0.752686  0.891700  0.726921  1
  O  O175  1  0.786185  0.623851  0.478980  1
  O  O176  1  0.501662  0.307149  0.818256  1
  O  O177  1  0.754749  0.730042  0.826435  1
  O  O178  1  0.498278  0.764228  0.537520  1
  O  O179  1  0.508559  0.290467  0.024546  1
  O  O180  1  0.713815  0.123851  0.978980  1
  O  O181  1  0.750885  0.111056  0.194384  1
