# generated using pymatgen
data_Pr3MoO7
_symmetry_space_group_name_H-M   'P 1'
_cell_length_a   7.78143129
_cell_length_b   7.69390426
_cell_length_c   11.05669852
_cell_angle_alpha   90.00000000
_cell_angle_beta   90.00000000
_cell_angle_gamma   90.00000000
_symmetry_Int_Tables_number   1
_chemical_formula_structural   Pr3MoO7
_chemical_formula_sum   'Pr12 Mo4 O28'
_cell_volume   661.95997786
_cell_formula_units_Z   4
loop_
 _symmetry_equiv_pos_site_id
 _symmetry_equiv_pos_as_xyz
  1  'x, y, z'
loop_
 _atom_site_type_symbol
 _atom_site_label
 _atom_site_symmetry_multiplicity
 _atom_site_fract_x
 _atom_site_fract_y
 _atom_site_fract_z
 _atom_site_occupancy
  O  O0  1  0.514410  0.239455  0.117828  1
  O  O1  1  0.014411  0.260545  0.882172  1
  O  O2  1  0.485590  0.739455  0.382171  1
  O  O3  1  0.985590  0.760545  0.617829  1
  O  O4  1  0.691305  0.032715  0.874592  1
  O  O5  1  0.191305  0.467284  0.125408  1
  O  O6  1  0.308696  0.532716  0.625408  1
  O  O7  1  0.808696  0.967284  0.374592  1
  O  O8  1  0.936464  0.253763  0.254502  1
  O  O9  1  0.436464  0.246237  0.745498  1
  O  O10  1  0.063535  0.753763  0.245497  1
  O  O11  1  0.563535  0.746237  0.754503  1
  O  O12  1  0.703679  0.032740  0.629576  1
  O  O13  1  0.203679  0.467261  0.370424  1
  O  O14  1  0.296320  0.532739  0.870424  1
  O  O15  1  0.796320  0.967261  0.129577  1
  O  O16  1  0.175312  0.035800  0.374950  1
  O  O17  1  0.675311  0.464199  0.625049  1
  O  O18  1  0.824688  0.535801  0.125049  1
  O  O19  1  0.324688  0.964199  0.874951  1
  O  O20  1  0.144521  0.041921  0.107614  1
  O  O21  1  0.644521  0.458079  0.892386  1
  O  O22  1  0.529659  0.250217  0.382927  1
  O  O23  1  0.355479  0.958078  0.607615  1
  O  O24  1  0.970340  0.749782  0.882926  1
  O  O25  1  0.470341  0.750218  0.117074  1
  O  O26  1  0.029659  0.249783  0.617074  1
  O  O27  1  0.855479  0.541922  0.392386  1
  Mo  Mo28  1  0.498323  0.995978  0.749158  1
  Mo  Mo29  1  0.998323  0.504022  0.250842  1
  Mo  Mo30  1  0.501676  0.495977  0.750842  1
  Mo  Mo31  1  0.001677  0.004022  0.249158  1
  Pr  Pr32  1  0.542779  0.988364  0.253507  1
  Pr  Pr33  1  0.291903  0.250750  0.973678  1
  Pr  Pr34  1  0.208096  0.749250  0.473678  1
  Pr  Pr35  1  0.708096  0.750750  0.526322  1
  Pr  Pr36  1  0.791903  0.249249  0.026322  1
  Pr  Pr37  1  0.042778  0.511636  0.746493  1
  Pr  Pr38  1  0.457222  0.488364  0.246493  1
  Pr  Pr39  1  0.957221  0.011635  0.753507  1
  Pr  Pr40  1  0.700210  0.748841  0.978635  1
  Pr  Pr41  1  0.200209  0.751159  0.021365  1
  Pr  Pr42  1  0.299791  0.248841  0.521365  1
  Pr  Pr43  1  0.799790  0.251160  0.478635  1
