# generated using pymatgen
data_Pr3ReO8
_symmetry_space_group_name_H-M   'P 1'
_cell_length_a   6.24078537
_cell_length_b   7.56949720
_cell_length_c   14.33591054
_cell_angle_alpha   98.85185110
_cell_angle_beta   90.00000000
_cell_angle_gamma   90.00000000
_symmetry_Int_Tables_number   1
_chemical_formula_structural   Pr3ReO8
_chemical_formula_sum   'Pr12 Re4 O32'
_cell_volume   669.15674339
_cell_formula_units_Z   4
loop_
 _symmetry_equiv_pos_site_id
 _symmetry_equiv_pos_as_xyz
  1  'x, y, z'
loop_
 _atom_site_type_symbol
 _atom_site_label
 _atom_site_symmetry_multiplicity
 _atom_site_fract_x
 _atom_site_fract_y
 _atom_site_fract_z
 _atom_site_occupancy
  O  O0  1  0.300792  0.948945  0.978181  1
  O  O1  1  0.800792  0.551055  0.521819  1
  O  O2  1  0.699208  0.051055  0.021819  1
  O  O3  1  0.199208  0.448945  0.478181  1
  O  O4  1  0.539696  0.656873  0.903796  1
  O  O5  1  0.039696  0.843127  0.596204  1
  O  O6  1  0.460304  0.343127  0.096204  1
  O  O7  1  0.960304  0.156873  0.403796  1
  O  O8  1  0.154328  0.503484  0.832029  1
  O  O9  1  0.654328  0.996516  0.667971  1
  O  O10  1  0.845672  0.496516  0.167971  1
  O  O11  1  0.345672  0.003484  0.332029  1
  O  O12  1  0.452535  0.714315  0.589568  1
  O  O13  1  0.952535  0.785685  0.910432  1
  O  O14  1  0.547465  0.285685  0.410432  1
  O  O15  1  0.047465  0.214315  0.089568  1
  O  O16  1  0.030099  0.855577  0.172987  1
  O  O17  1  0.530099  0.644423  0.327013  1
  O  O18  1  0.969901  0.144423  0.827013  1
  O  O19  1  0.469901  0.355577  0.672987  1
  O  O20  1  0.530191  0.807346  0.160690  1
  O  O21  1  0.030191  0.692654  0.339310  1
  O  O22  1  0.469809  0.192654  0.839310  1
  O  O23  1  0.969809  0.307346  0.660690  1
  O  O24  1  0.200048  0.610585  0.015739  1
  O  O25  1  0.700048  0.889415  0.484261  1
  O  O26  1  0.799952  0.389415  0.984261  1
  O  O27  1  0.299952  0.110585  0.515739  1
  O  O28  1  0.206400  0.317081  0.291554  1
  O  O29  1  0.706400  0.182919  0.208446  1
  O  O30  1  0.793600  0.682919  0.708446  1
  O  O31  1  0.293600  0.817081  0.791554  1
  Pr  Pr32  1  0.262708  0.603665  0.200762  1
  Pr  Pr33  1  0.762708  0.896335  0.299238  1
  Pr  Pr34  1  0.737292  0.396335  0.799238  1
  Pr  Pr35  1  0.237292  0.103665  0.700762  1
  Pr  Pr36  1  0.201796  0.285600  0.946407  1
  Pr  Pr37  1  0.701796  0.214400  0.553593  1
  Pr  Pr38  1  0.798204  0.714400  0.053593  1
  Pr  Pr39  1  0.298204  0.785600  0.446407  1
  Pr  Pr40  1  0.188292  0.562812  0.666737  1
  Pr  Pr41  1  0.688292  0.937188  0.833263  1
  Pr  Pr42  1  0.811708  0.437188  0.333263  1
  Pr  Pr43  1  0.311708  0.062812  0.166737  1
  Re  Re44  1  0.254730  0.229571  0.409059  1
  Re  Re45  1  0.754730  0.270429  0.090941  1
  Re  Re46  1  0.745270  0.770429  0.590941  1
  Re  Re47  1  0.245270  0.729571  0.909059  1
