# generated using pymatgen
data_Co(CuO2)4
_symmetry_space_group_name_H-M   'P 1'
_cell_length_a   6.10389400
_cell_length_b   6.08722204
_cell_length_c   6.90741488
_cell_angle_alpha   74.36827280
_cell_angle_beta   49.20875723
_cell_angle_gamma   55.71346163
_symmetry_Int_Tables_number   1
_chemical_formula_structural   Co(CuO2)4
_chemical_formula_sum   'Co1 Cu4 O8'
_cell_volume   158.53781369
_cell_formula_units_Z   1
loop_
 _symmetry_equiv_pos_site_id
 _symmetry_equiv_pos_as_xyz
  1  'x, y, z'
loop_
 _atom_site_type_symbol
 _atom_site_label
 _atom_site_symmetry_multiplicity
 _atom_site_fract_x
 _atom_site_fract_y
 _atom_site_fract_z
 _atom_site_occupancy
  Co  Co0  1  0.499717  0.500031  0.000243  1
  Cu  Cu1  1  0.000122  0.500016  0.499857  1
  Cu  Cu2  1  0.999905  -0.000015  0.000095  1
  Cu  Cu3  1  0.500021  0.000020  0.000010  1
  Cu  Cu4  1  0.000047  0.500016  -0.000002  1
  O  O5  1  0.463264  0.315285  0.846369  1
  O  O6  1  0.960550  0.291033  0.768052  1
  O  O7  1  0.536690  0.738859  0.762791  1
  O  O8  1  0.957512  0.815509  0.857126  1
  O  O9  1  0.042446  0.184469  0.142892  1
  O  O10  1  0.463305  0.261219  0.237126  1
  O  O11  1  0.039689  0.708841  0.231812  1
  O  O12  1  0.536732  0.684715  0.153626  1
