# generated using pymatgen
data_Pr(ReO4)2
_symmetry_space_group_name_H-M   'P 1'
_cell_length_a   6.27302468
_cell_length_b   6.27212072
_cell_length_c   6.44950572
_cell_angle_alpha   90.00976420
_cell_angle_beta   90.00113487
_cell_angle_gamma   119.99497008
_symmetry_Int_Tables_number   1
_chemical_formula_structural   Pr(ReO4)2
_chemical_formula_sum   'Pr1 Re2 O8'
_cell_volume   219.77104276
_cell_formula_units_Z   1
loop_
 _symmetry_equiv_pos_site_id
 _symmetry_equiv_pos_as_xyz
  1  'x, y, z'
loop_
 _atom_site_type_symbol
 _atom_site_label
 _atom_site_symmetry_multiplicity
 _atom_site_fract_x
 _atom_site_fract_y
 _atom_site_fract_z
 _atom_site_occupancy
  Pr  Pr0  1  0.999991  0.999997  0.999947  1
  Re  Re1  1  0.333386  0.666711  0.303769  1
  Re  Re2  1  0.666590  0.333302  0.696232  1
  O  O3  1  0.219247  0.857791  0.208854  1
  O  O4  1  0.142240  0.361498  0.208886  1
  O  O5  1  0.333298  0.666684  0.572813  1
  O  O6  1  0.361409  0.219246  0.791198  1
  O  O7  1  0.638526  0.780734  0.208836  1
  O  O8  1  0.666607  0.333306  0.427178  1
  O  O9  1  0.857764  0.638544  0.791126  1
  O  O10  1  0.780742  0.142186  0.791161  1
