# generated using pymatgen
data_Pr(WO3)5
_symmetry_space_group_name_H-M   'P 1'
_cell_length_a   3.84732358
_cell_length_b   7.46237287
_cell_length_c   10.23886405
_cell_angle_alpha   90.00001026
_cell_angle_beta   90.00005456
_cell_angle_gamma   90.00006189
_symmetry_Int_Tables_number   1
_chemical_formula_structural   Pr(WO3)5
_chemical_formula_sum   'Pr1 W5 O15'
_cell_volume   293.95945689
_cell_formula_units_Z   1
loop_
 _symmetry_equiv_pos_site_id
 _symmetry_equiv_pos_as_xyz
  1  'x, y, z'
loop_
 _atom_site_type_symbol
 _atom_site_label
 _atom_site_symmetry_multiplicity
 _atom_site_fract_x
 _atom_site_fract_y
 _atom_site_fract_z
 _atom_site_occupancy
  Pr  Pr0  1  0.499996  0.499996  0.499992  1
  W  W1  1  0.000001  0.253830  0.816104  1
  W  W2  1  0.999999  0.746168  0.816105  1
  W  W3  1  1.000000  0.253828  0.183899  1
  W  W4  1  1.000000  0.746171  0.183899  1
  W  W5  1  1.000000  -0.000000  0.500000  1
  O  O6  1  0.500000  0.737409  0.812820  1
  O  O7  1  0.000001  0.499999  0.267824  1
  O  O8  1  0.500000  0.262591  0.187180  1
  O  O9  1  0.999999  0.000002  0.151454  1
  O  O10  1  0.000001  0.499999  0.732181  1
  O  O11  1  0.000002  0.196632  0.624033  1
  O  O12  1  0.500000  0.000001  0.500000  1
  O  O13  1  0.000000  0.196635  0.375972  1
  O  O14  1  0.999999  0.692542  0.999993  1
  O  O15  1  0.499999  0.737409  0.187180  1
  O  O16  1  0.999999  0.803369  0.624034  1
  O  O17  1  0.000001  0.307460  0.999994  1
  O  O18  1  0.000000  0.000002  0.848542  1
  O  O19  1  0.000000  0.803366  0.375972  1
  O  O20  1  0.500002  0.262592  0.812819  1
