# generated using pymatgen
data_AgRuO3
_symmetry_space_group_name_H-M   'P 1'
_cell_length_a   7.21461646
_cell_length_b   7.21461646
_cell_length_c   7.21461646
_cell_angle_alpha   60.00000000
_cell_angle_beta   90.00000000
_cell_angle_gamma   120.00000000
_symmetry_Int_Tables_number   1
_chemical_formula_structural   AgRuO3
_chemical_formula_sum   'Ag4 Ru4 O12'
_cell_volume   265.53681782
_cell_formula_units_Z   4
loop_
 _symmetry_equiv_pos_site_id
 _symmetry_equiv_pos_as_xyz
  1  'x, y, z'
loop_
 _atom_site_type_symbol
 _atom_site_label
 _atom_site_symmetry_multiplicity
 _atom_site_fract_x
 _atom_site_fract_y
 _atom_site_fract_z
 _atom_site_occupancy
  Ag  Ag0  1  0.500000  0.500000  0.000000  1
  Ag  Ag1  1  0.000000  0.000000  0.000000  1
  Ag  Ag2  1  0.000000  0.500000  0.000000  1
  Ag  Ag3  1  0.000000  0.000000  0.500000  1
  Ru  Ru4  1  0.500000  0.000000  0.000000  1
  Ru  Ru5  1  0.500000  0.000000  0.500000  1
  Ru  Ru6  1  0.500000  0.500000  0.500000  1
  Ru  Ru7  1  0.000000  0.500000  0.500000  1
  O  O8  1  0.821700  0.250000  0.428300  1
  O  O9  1  0.571700  0.143400  0.178300  1
  O  O10  1  0.571700  0.750000  0.178300  1
  O  O11  1  0.821700  0.250000  0.821700  1
  O  O12  1  0.821700  0.643400  0.428300  1
  O  O13  1  0.428300  0.250000  0.428300  1
  O  O14  1  0.571700  0.750000  0.571700  1
  O  O15  1  0.178300  0.750000  0.178300  1
  O  O16  1  0.178300  0.356600  0.571700  1
  O  O17  1  0.428300  0.250000  0.821700  1
  O  O18  1  0.428300  0.856600  0.821700  1
  O  O19  1  0.178300  0.750000  0.571700  1
