# generated using pymatgen
data_Pr5Ti4FeO17
_symmetry_space_group_name_H-M   'P 1'
_cell_length_a   5.54064381
_cell_length_b   7.78651594
_cell_length_c   32.15211938
_cell_angle_alpha   96.90479752
_cell_angle_beta   90.00000000
_cell_angle_gamma   90.00000000
_symmetry_Int_Tables_number   1
_chemical_formula_structural   Pr5Ti4FeO17
_chemical_formula_sum   'Pr20 Ti16 Fe4 O68'
_cell_volume   1377.05637439
_cell_formula_units_Z   4
loop_
 _symmetry_equiv_pos_site_id
 _symmetry_equiv_pos_as_xyz
  1  'x, y, z'
loop_
 _atom_site_type_symbol
 _atom_site_label
 _atom_site_symmetry_multiplicity
 _atom_site_fract_x
 _atom_site_fract_y
 _atom_site_fract_z
 _atom_site_occupancy
  Pr  Pr0  1  0.018583  0.291417  0.080168  1
  Pr  Pr1  1  0.518583  0.208583  0.419832  1
  Pr  Pr2  1  0.545418  0.845877  0.200408  1
  Pr  Pr3  1  0.454582  0.154123  0.799592  1
  Pr  Pr4  1  0.113332  0.135785  0.279279  1
  Pr  Pr5  1  0.498947  0.296651  0.595503  1
  Pr  Pr6  1  0.507793  0.752707  0.007295  1
  Pr  Pr7  1  1.001053  0.796651  0.095503  1
  Pr  Pr8  1  0.501053  0.703349  0.404497  1
  Pr  Pr9  1  0.992207  0.252707  0.507295  1
  Pr  Pr10  1  -0.001053  0.203349  0.904497  1
  Pr  Pr11  1  0.007793  0.747293  0.492705  1
  Pr  Pr12  1  0.481417  0.791417  0.580168  1
  Pr  Pr13  1  0.492207  0.247293  0.992705  1
  Pr  Pr14  1  0.045418  0.654123  0.299592  1
  Pr  Pr15  1  0.886668  0.864215  0.720721  1
  Pr  Pr16  1  0.954582  0.345877  0.700408  1
  Pr  Pr17  1  0.613332  0.364215  0.220721  1
  Pr  Pr18  1  0.386668  0.635785  0.779279  1
  Pr  Pr19  1  0.981417  0.708583  0.919832  1
  Ti  Ti20  1  0.515689  0.047947  0.093087  1
  Ti  Ti21  1  0.487239  0.452089  0.905935  1
  Ti  Ti22  1  0.984311  0.547947  0.593087  1
  Ti  Ti23  1  0.054170  0.587875  0.178813  1
  Ti  Ti24  1  0.043641  0.100195  0.176180  1
  Ti  Ti25  1  0.945830  0.412125  0.821187  1
  Ti  Ti26  1  0.456359  0.600195  0.676180  1
  Ti  Ti27  1  0.015689  0.452053  0.406913  1
  Ti  Ti28  1  0.012761  0.952089  0.405935  1
  Ti  Ti29  1  0.554170  0.912125  0.321187  1
  Ti  Ti30  1  0.987239  0.047911  0.594065  1
  Ti  Ti31  1  0.484311  0.952053  0.906913  1
  Ti  Ti32  1  0.512761  0.547911  0.094065  1
  Ti  Ti33  1  0.445830  0.087875  0.678813  1
  Ti  Ti34  1  0.956359  0.899805  0.823820  1
  Ti  Ti35  1  0.543641  0.399805  0.323820  1
  Fe  Fe36  1  0.500000  0.000000  0.500000  1
  Fe  Fe37  1  0.000000  0.000000  0.000000  1
  Fe  Fe38  1  0.000000  0.500000  0.000000  1
  Fe  Fe39  1  0.500000  0.500000  0.500000  1
  O  O40  1  0.311638  0.129021  0.211090  1
  O  O41  1  0.082394  0.748655  0.996991  1
  O  O42  1  0.654826  0.132503  0.725656  1
  O  O43  1  0.392105  0.333607  0.670673  1
  O  O44  1  0.672857  0.587976  0.720356  1
  O  O45  1  0.688362  0.870980  0.788910  1
  O  O46  1  0.218566  0.435646  0.947626  1
  O  O47  1  0.286426  0.990033  0.862495  1
  O  O48  1  0.917606  0.251345  0.003009  1
  O  O49  1  0.327143  0.412024  0.279644  1
  O  O50  1  0.798033  0.916797  0.880194  1
  O  O51  1  0.201967  0.083203  0.119806  1
  O  O52  1  0.208357  0.869930  0.361487  1
  O  O53  1  0.791643  0.130070  0.638513  1
  O  O54  1  0.219189  0.012700  0.948065  1
  O  O55  1  0.213574  0.490033  0.362495  1
  O  O56  1  0.162611  0.074210  0.704085  1
  O  O57  1  0.780811  0.987300  0.051935  1
  O  O58  1  0.172857  0.912024  0.779644  1
  O  O59  1  0.337389  0.574210  0.204085  1
  O  O60  1  0.837389  0.925790  0.295915  1
  O  O61  1  0.577305  0.295540  0.091151  1
  O  O62  1  0.719189  0.487300  0.551935  1
  O  O63  1  0.708357  0.630070  0.138513  1
  O  O64  1  0.188362  0.629020  0.711090  1
  O  O65  1  0.713574  0.009967  0.137505  1
  O  O66  1  0.417606  0.248655  0.496991  1
  O  O67  1  0.710234  0.935805  0.962905  1
  O  O68  1  0.701967  0.416797  0.380194  1
  O  O69  1  0.811638  0.370980  0.288910  1
  O  O70  1  0.298033  0.583203  0.619806  1
  O  O71  1  0.198578  0.536743  0.119144  1
  O  O72  1  0.289766  0.064195  0.037095  1
  O  O73  1  0.456197  0.164200  0.329253  1
  O  O74  1  0.210234  0.564195  0.537095  1
  O  O75  1  0.291643  0.369930  0.861487  1
  O  O76  1  0.107895  0.833607  0.170673  1
  O  O77  1  0.892105  0.166393  0.829327  1
  O  O78  1  0.422695  0.704460  0.908849  1
  O  O79  1  0.922695  0.795540  0.591151  1
  O  O80  1  0.210163  0.973515  0.536738  1
  O  O81  1  0.781434  0.564354  0.052374  1
  O  O82  1  0.698578  0.963257  0.380856  1
  O  O83  1  0.929392  0.708759  0.417761  1
  O  O84  1  0.710163  0.526485  0.963262  1
  O  O85  1  0.154826  0.367497  0.774344  1
  O  O86  1  0.301422  0.036743  0.619144  1
  O  O87  1  0.570608  0.208759  0.917761  1
  O  O88  1  0.077305  0.204460  0.408849  1
  O  O89  1  0.281434  0.935646  0.447626  1
  O  O90  1  0.662611  0.425790  0.795915  1
  O  O91  1  0.429392  0.791241  0.082239  1
  O  O92  1  0.718566  0.064354  0.552374  1
  O  O93  1  0.543803  0.835800  0.670747  1
  O  O94  1  0.070608  0.291241  0.582239  1
  O  O95  1  0.789837  0.026485  0.463262  1
  O  O96  1  0.827143  0.087976  0.220356  1
  O  O97  1  0.280811  0.512700  0.448065  1
  O  O98  1  0.845174  0.632503  0.225656  1
  O  O99  1  0.789766  0.435805  0.462905  1
  O  O100  1  0.289837  0.473515  0.036738  1
  O  O101  1  0.607895  0.666393  0.329327  1
  O  O102  1  0.786426  0.509967  0.637505  1
  O  O103  1  0.345174  0.867497  0.274344  1
  O  O104  1  0.582394  0.751345  0.503009  1
  O  O105  1  0.801422  0.463257  0.880856  1
  O  O106  1  0.043803  0.664200  0.829253  1
  O  O107  1  0.956197  0.335800  0.170747  1
