# generated using pymatgen
data_Pr13Cd58
_symmetry_space_group_name_H-M   'P 1'
_cell_length_a   16.02919713
_cell_length_b   16.02919703
_cell_length_c   15.69410234
_cell_angle_alpha   90.00000000
_cell_angle_beta   90.00000000
_cell_angle_gamma   120.00000018
_symmetry_Int_Tables_number   1
_chemical_formula_structural   Pr13Cd58
_chemical_formula_sum   'Pr26 Cd116'
_cell_volume   3492.13197764
_cell_formula_units_Z   2
loop_
 _symmetry_equiv_pos_site_id
 _symmetry_equiv_pos_as_xyz
  1  'x, y, z'
loop_
 _atom_site_type_symbol
 _atom_site_label
 _atom_site_symmetry_multiplicity
 _atom_site_fract_x
 _atom_site_fract_y
 _atom_site_fract_z
 _atom_site_occupancy
  Pr  Pr0  1  0.410977  0.205489  0.552127  1
  Pr  Pr1  1  0.871864  0.743728  0.250000  1
  Pr  Pr2  1  0.205489  0.410977  0.052127  1
  Pr  Pr3  1  0.085624  0.542812  0.750000  1
  Pr  Pr4  1  0.794511  0.589023  0.947873  1
  Pr  Pr5  1  0.794511  0.205489  0.552127  1
  Pr  Pr6  1  0.914376  0.457188  0.250000  1
  Pr  Pr7  1  0.794511  0.205489  0.947873  1
  Pr  Pr8  1  0.794511  0.589023  0.552127  1
  Pr  Pr9  1  0.457188  0.914376  0.750000  1
  Pr  Pr10  1  0.128136  0.871864  0.750000  1
  Pr  Pr11  1  0.871864  0.128136  0.250000  1
  Pr  Pr12  1  0.589023  0.794511  0.052127  1
  Pr  Pr13  1  0.589023  0.794511  0.447873  1
  Pr  Pr14  1  0.205489  0.794511  0.447873  1
  Pr  Pr15  1  0.000000  0.000000  0.000000  1
  Pr  Pr16  1  0.457188  0.542812  0.750000  1
  Pr  Pr17  1  0.542812  0.085624  0.250000  1
  Pr  Pr18  1  0.128136  0.256272  0.750000  1
  Pr  Pr19  1  0.743728  0.871864  0.750000  1
  Pr  Pr20  1  0.205489  0.410977  0.447873  1
  Pr  Pr21  1  0.410977  0.205489  0.947873  1
  Pr  Pr22  1  0.000000  0.000000  0.500000  1
  Pr  Pr23  1  0.256272  0.128136  0.250000  1
  Pr  Pr24  1  0.205489  0.794511  0.052127  1
  Pr  Pr25  1  0.542812  0.457188  0.250000  1
  Cd  Cd26  1  0.906823  0.093177  0.655881  1
  Cd  Cd27  1  0.000000  0.199283  0.000000  1
  Cd  Cd28  1  0.634877  0.964021  0.602662  1
  Cd  Cd29  1  0.365123  0.329144  0.397338  1
  Cd  Cd30  1  0.670856  0.634877  0.102662  1
  Cd  Cd31  1  0.600331  0.399669  0.052315  1
  Cd  Cd32  1  0.634877  0.670856  0.897338  1
  Cd  Cd33  1  0.964021  0.634877  0.102662  1
  Cd  Cd34  1  0.200663  0.600331  0.947685  1
  Cd  Cd35  1  0.093177  0.906823  0.344119  1
  Cd  Cd36  1  0.561756  0.123512  0.644660  1
  Cd  Cd37  1  0.813645  0.906823  0.344119  1
  Cd  Cd38  1  0.732176  0.267824  0.750000  1
  Cd  Cd39  1  0.438244  0.876488  0.355340  1
  Cd  Cd40  1  0.329144  0.365123  0.897338  1
  Cd  Cd41  1  0.035979  0.670856  0.897338  1
  Cd  Cd42  1  0.530032  0.765016  0.841537  1
  Cd  Cd43  1  0.800717  0.800717  0.000000  1
  Cd  Cd44  1  0.365123  0.035979  0.397338  1
  Cd  Cd45  1  0.000000  0.199283  0.500000  1
  Cd  Cd46  1  0.917670  0.639901  0.750000  1
  Cd  Cd47  1  0.199283  0.199283  0.500000  1
  Cd  Cd48  1  0.670856  0.035979  0.102662  1
  Cd  Cd49  1  0.600331  0.399669  0.447685  1
  Cd  Cd50  1  0.765016  0.530032  0.341537  1
  Cd  Cd51  1  0.765016  0.530032  0.158463  1
  Cd  Cd52  1  0.964021  0.329144  0.102662  1
  Cd  Cd53  1  0.666667  0.333333  0.594819  1
  Cd  Cd54  1  0.277769  0.917670  0.250000  1
  Cd  Cd55  1  0.469968  0.234984  0.341537  1
  Cd  Cd56  1  0.035979  0.365123  0.602662  1
  Cd  Cd57  1  0.333333  0.666667  0.750000  1
  Cd  Cd58  1  0.722231  0.082330  0.750000  1
  Cd  Cd59  1  0.035979  0.365123  0.897338  1
  Cd  Cd60  1  0.800717  0.000000  0.500000  1
  Cd  Cd61  1  0.600331  0.200663  0.447685  1
  Cd  Cd62  1  0.670856  0.035979  0.397338  1
  Cd  Cd63  1  0.360099  0.082330  0.750000  1
  Cd  Cd64  1  0.917670  0.277769  0.750000  1
  Cd  Cd65  1  0.000000  0.800717  0.000000  1
  Cd  Cd66  1  0.438244  0.561756  0.144660  1
  Cd  Cd67  1  0.123512  0.561756  0.355340  1
  Cd  Cd68  1  0.500000  0.000000  0.500000  1
  Cd  Cd69  1  0.906823  0.813645  0.844119  1
  Cd  Cd70  1  0.093177  0.186355  0.155881  1
  Cd  Cd71  1  0.035979  0.670856  0.602662  1
  Cd  Cd72  1  0.329144  0.365123  0.602662  1
  Cd  Cd73  1  0.561756  0.123512  0.855340  1
  Cd  Cd74  1  0.200663  0.600331  0.552315  1
  Cd  Cd75  1  0.634877  0.670856  0.602662  1
  Cd  Cd76  1  0.438244  0.561756  0.355340  1
  Cd  Cd77  1  0.000000  0.000000  0.250000  1
  Cd  Cd78  1  0.600331  0.200663  0.052315  1
  Cd  Cd79  1  0.799337  0.399669  0.447685  1
  Cd  Cd80  1  0.732176  0.464352  0.750000  1
  Cd  Cd81  1  0.399669  0.799337  0.947685  1
  Cd  Cd82  1  0.666667  0.333333  0.905181  1
  Cd  Cd83  1  0.234984  0.469968  0.841537  1
  Cd  Cd84  1  0.765016  0.234984  0.158463  1
  Cd  Cd85  1  0.277769  0.360099  0.250000  1
  Cd  Cd86  1  0.399669  0.600331  0.552315  1
  Cd  Cd87  1  0.365123  0.035979  0.102662  1
  Cd  Cd88  1  0.765016  0.234984  0.341537  1
  Cd  Cd89  1  0.813645  0.906823  0.155881  1
  Cd  Cd90  1  0.329144  0.964021  0.897338  1
  Cd  Cd91  1  0.876488  0.438244  0.855340  1
  Cd  Cd92  1  0.906823  0.813645  0.655881  1
  Cd  Cd93  1  0.123512  0.561756  0.144660  1
  Cd  Cd94  1  0.964021  0.329144  0.397338  1
  Cd  Cd95  1  0.639901  0.722231  0.250000  1
  Cd  Cd96  1  0.561756  0.438244  0.855340  1
  Cd  Cd97  1  0.469968  0.234984  0.158463  1
  Cd  Cd98  1  0.800717  0.800717  0.500000  1
  Cd  Cd99  1  0.000000  0.000000  0.750000  1
  Cd  Cd100  1  0.186355  0.093177  0.655881  1
  Cd  Cd101  1  0.199283  0.199283  0.000000  1
  Cd  Cd102  1  0.199283  0.000000  0.500000  1
  Cd  Cd103  1  0.082330  0.360099  0.250000  1
  Cd  Cd104  1  0.670856  0.634877  0.397338  1
  Cd  Cd105  1  0.530032  0.765016  0.658463  1
  Cd  Cd106  1  0.799337  0.399669  0.052315  1
  Cd  Cd107  1  0.365123  0.329144  0.102662  1
  Cd  Cd108  1  0.234984  0.765016  0.841537  1
  Cd  Cd109  1  0.666667  0.333333  0.250000  1
  Cd  Cd110  1  0.438244  0.876488  0.144660  1
  Cd  Cd111  1  0.500000  0.500000  0.000000  1
  Cd  Cd112  1  0.000000  0.500000  0.500000  1
  Cd  Cd113  1  0.234984  0.765016  0.658463  1
  Cd  Cd114  1  0.333333  0.666667  0.405181  1
  Cd  Cd115  1  0.199283  0.000000  0.000000  1
  Cd  Cd116  1  0.082330  0.722231  0.250000  1
  Cd  Cd117  1  0.000000  0.800717  0.500000  1
  Cd  Cd118  1  0.634877  0.964021  0.897338  1
  Cd  Cd119  1  0.500000  0.500000  0.500000  1
  Cd  Cd120  1  0.186355  0.093177  0.844119  1
  Cd  Cd121  1  0.535648  0.267824  0.750000  1
  Cd  Cd122  1  0.093177  0.906823  0.155881  1
  Cd  Cd123  1  0.906823  0.093177  0.844119  1
  Cd  Cd124  1  0.561756  0.438244  0.644660  1
  Cd  Cd125  1  0.360099  0.277769  0.750000  1
  Cd  Cd126  1  0.267824  0.732176  0.250000  1
  Cd  Cd127  1  0.964021  0.634877  0.397338  1
  Cd  Cd128  1  0.333333  0.666667  0.094819  1
  Cd  Cd129  1  0.267824  0.535648  0.250000  1
  Cd  Cd130  1  0.800717  0.000000  0.000000  1
  Cd  Cd131  1  0.639901  0.917670  0.250000  1
  Cd  Cd132  1  0.500000  0.000000  0.000000  1
  Cd  Cd133  1  0.876488  0.438244  0.644660  1
  Cd  Cd134  1  0.329144  0.964021  0.602662  1
  Cd  Cd135  1  0.000000  0.500000  0.000000  1
  Cd  Cd136  1  0.093177  0.186355  0.344119  1
  Cd  Cd137  1  0.399669  0.600331  0.947685  1
  Cd  Cd138  1  0.234984  0.469968  0.658463  1
  Cd  Cd139  1  0.722231  0.639901  0.750000  1
  Cd  Cd140  1  0.399669  0.799337  0.552315  1
  Cd  Cd141  1  0.464352  0.732176  0.250000  1
