# generated using pymatgen
data_Pr13Zn58
_symmetry_space_group_name_H-M   'P 1'
_cell_length_a   14.24685949
_cell_length_b   14.62908902
_cell_length_c   14.62908902
_cell_angle_alpha   120.00021128
_cell_angle_beta   90.00000000
_cell_angle_gamma   90.00000000
_symmetry_Int_Tables_number   1
_chemical_formula_structural   Pr13Zn58
_chemical_formula_sum   'Pr26 Zn116'
_cell_volume   2640.48322865
_cell_formula_units_Z   2
loop_
 _symmetry_equiv_pos_site_id
 _symmetry_equiv_pos_as_xyz
  1  'x, y, z'
loop_
 _atom_site_type_symbol
 _atom_site_label
 _atom_site_symmetry_multiplicity
 _atom_site_fract_x
 _atom_site_fract_y
 _atom_site_fract_z
 _atom_site_occupancy
  Pr  Pr0  1  0.500000  0.000000  0.000000  1
  Pr  Pr1  1  0.000000  0.000000  0.000000  1
  Pr  Pr2  1  0.750000  0.456977  0.913966  1
  Pr  Pr3  1  0.750000  0.456985  0.543015  1
  Pr  Pr4  1  0.750000  0.086034  0.543023  1
  Pr  Pr5  1  0.250000  0.543023  0.086034  1
  Pr  Pr6  1  0.250000  0.543015  0.456985  1
  Pr  Pr7  1  0.250000  0.913966  0.456977  1
  Pr  Pr8  1  0.750000  0.128230  0.256467  1
  Pr  Pr9  1  0.750000  0.128232  0.871768  1
  Pr  Pr10  1  0.750000  0.743533  0.871770  1
  Pr  Pr11  1  0.250000  0.871770  0.743533  1
  Pr  Pr12  1  0.250000  0.871768  0.128232  1
  Pr  Pr13  1  0.250000  0.256467  0.128230  1
  Pr  Pr14  1  0.552395  0.795005  0.590013  1
  Pr  Pr15  1  0.552399  0.795010  0.204990  1
  Pr  Pr16  1  0.552395  0.409987  0.204995  1
  Pr  Pr17  1  0.447605  0.204995  0.409987  1
  Pr  Pr18  1  0.447601  0.204990  0.795010  1
  Pr  Pr19  1  0.447605  0.590013  0.795005  1
  Pr  Pr20  1  0.052395  0.204995  0.409987  1
  Pr  Pr21  1  0.052399  0.204990  0.795010  1
  Pr  Pr22  1  0.052395  0.590013  0.795005  1
  Pr  Pr23  1  0.947605  0.795005  0.590013  1
  Pr  Pr24  1  0.947601  0.795010  0.204990  1
  Pr  Pr25  1  0.947605  0.409987  0.204995  1
  Zn  Zn26  1  0.750000  0.000000  1.000000  1
  Zn  Zn27  1  0.250000  1.000000  0.000000  1
  Zn  Zn28  1  0.250000  0.666678  0.333322  1
  Zn  Zn29  1  0.750000  0.333322  0.666678  1
  Zn  Zn30  1  0.596567  0.666679  0.333321  1
  Zn  Zn31  1  0.403433  0.333321  0.666679  1
  Zn  Zn32  1  0.096567  0.333321  0.666679  1
  Zn  Zn33  1  0.903433  0.666679  0.333321  1
  Zn  Zn34  1  0.500000  0.500000  0.000000  1
  Zn  Zn35  1  0.500000  0.500000  0.500000  1
  Zn  Zn36  1  0.500000  0.000000  0.500000  1
  Zn  Zn37  1  0.000000  0.500000  0.000000  1
  Zn  Zn38  1  0.000000  0.500000  0.500000  1
  Zn  Zn39  1  0.000000  0.000000  0.500000  1
  Zn  Zn40  1  0.750000  0.729742  0.459486  1
  Zn  Zn41  1  0.750000  0.729748  0.270252  1
  Zn  Zn42  1  0.750000  0.540514  0.270258  1
  Zn  Zn43  1  0.250000  0.270258  0.540514  1
  Zn  Zn44  1  0.250000  0.270252  0.729748  1
  Zn  Zn45  1  0.250000  0.459486  0.729742  1
  Zn  Zn46  1  0.500000  0.797990  -0.000000  1
  Zn  Zn47  1  0.500000  0.202010  0.202010  1
  Zn  Zn48  1  0.500000  -0.000000  0.797990  1
  Zn  Zn49  1  0.500000  0.202010  0.000000  1
  Zn  Zn50  1  0.500000  0.000000  0.202010  1
  Zn  Zn51  1  0.500000  0.797990  0.797990  1
  Zn  Zn52  1  1.000000  0.202010  0.000000  1
  Zn  Zn53  1  0.000000  0.797990  0.797990  1
  Zn  Zn54  1  0.000000  0.000000  0.202010  1
  Zn  Zn55  1  0.000000  0.797990  -0.000000  1
  Zn  Zn56  1  1.000000  -0.000000  0.797990  1
  Zn  Zn57  1  0.000000  0.202010  0.202010  1
  Zn  Zn58  1  0.750000  0.915546  0.633800  1
  Zn  Zn59  1  0.750000  0.718254  0.084452  1
  Zn  Zn60  1  0.750000  0.366199  0.281747  1
  Zn  Zn61  1  0.750000  0.718253  0.633801  1
  Zn  Zn62  1  0.750000  0.366200  0.084454  1
  Zn  Zn63  1  0.750000  0.915548  0.281746  1
  Zn  Zn64  1  0.250000  0.084454  0.366200  1
  Zn  Zn65  1  0.250000  0.281746  0.915548  1
  Zn  Zn66  1  0.250000  0.633801  0.718253  1
  Zn  Zn67  1  0.250000  0.281747  0.366199  1
  Zn  Zn68  1  0.250000  0.633800  0.915546  1
  Zn  Zn69  1  0.250000  0.084452  0.718254  1
  Zn  Zn70  1  0.656855  0.905051  0.810103  1
  Zn  Zn71  1  0.656856  0.905052  0.094948  1
  Zn  Zn72  1  0.656855  0.189897  0.094949  1
  Zn  Zn73  1  0.343145  0.094949  0.189897  1
  Zn  Zn74  1  0.343144  0.094948  0.905052  1
  Zn  Zn75  1  0.343145  0.810103  0.905051  1
  Zn  Zn76  1  0.156855  0.094949  0.189897  1
  Zn  Zn77  1  0.156856  0.094948  0.905052  1
  Zn  Zn78  1  0.156855  0.810103  0.905051  1
  Zn  Zn79  1  0.843145  0.905051  0.810103  1
  Zn  Zn80  1  0.843144  0.905052  0.094948  1
  Zn  Zn81  1  0.843145  0.189897  0.094949  1
  Zn  Zn82  1  0.141191  0.435178  0.870356  1
  Zn  Zn83  1  0.141187  0.435170  0.564830  1
  Zn  Zn84  1  0.141191  0.129644  0.564822  1
  Zn  Zn85  1  0.858809  0.564822  0.129644  1
  Zn  Zn86  1  0.858813  0.564830  0.435170  1
  Zn  Zn87  1  0.858809  0.870356  0.435178  1
  Zn  Zn88  1  0.641191  0.564822  0.129644  1
  Zn  Zn89  1  0.641187  0.564830  0.435170  1
  Zn  Zn90  1  0.641191  0.870356  0.435178  1
  Zn  Zn91  1  0.358809  0.435178  0.870356  1
  Zn  Zn92  1  0.358813  0.435170  0.564830  1
  Zn  Zn93  1  0.358809  0.129644  0.564822  1
  Zn  Zn94  1  0.550976  0.397940  0.795881  1
  Zn  Zn95  1  0.550966  0.397938  0.602062  1
  Zn  Zn96  1  0.550976  0.204119  0.602060  1
  Zn  Zn97  1  0.449024  0.602060  0.204119  1
  Zn  Zn98  1  0.449034  0.602062  0.397938  1
  Zn  Zn99  1  0.449024  0.795881  0.397940  1
  Zn  Zn100  1  0.050976  0.602060  0.204119  1
  Zn  Zn101  1  0.050966  0.602062  0.397938  1
  Zn  Zn102  1  0.050976  0.795881  0.397940  1
  Zn  Zn103  1  0.949024  0.397940  0.795881  1
  Zn  Zn104  1  0.949034  0.397938  0.602062  1
  Zn  Zn105  1  0.949024  0.204119  0.602060  1
  Zn  Zn106  1  0.157132  0.762615  0.525227  1
  Zn  Zn107  1  0.157128  0.762618  0.237382  1
  Zn  Zn108  1  0.157132  0.474773  0.237385  1
  Zn  Zn109  1  0.842868  0.237385  0.474773  1
  Zn  Zn110  1  0.842872  0.237382  0.762618  1
  Zn  Zn111  1  0.842868  0.525227  0.762615  1
  Zn  Zn112  1  0.657132  0.237385  0.474773  1
  Zn  Zn113  1  0.657128  0.237382  0.762618  1
  Zn  Zn114  1  0.657132  0.525227  0.762615  1
  Zn  Zn115  1  0.342868  0.762615  0.525227  1
  Zn  Zn116  1  0.342872  0.762618  0.237382  1
  Zn  Zn117  1  0.342868  0.474773  0.237385  1
  Zn  Zn118  1  0.602529  0.634536  0.964171  1
  Zn  Zn119  1  0.602530  0.329634  0.365464  1
  Zn  Zn120  1  0.602530  0.035830  0.670366  1
  Zn  Zn121  1  0.602530  0.329634  0.964170  1
  Zn  Zn122  1  0.602529  0.035829  0.365464  1
  Zn  Zn123  1  0.602530  0.634536  0.670366  1
  Zn  Zn124  1  0.397471  0.365464  0.035829  1
  Zn  Zn125  1  0.397470  0.670366  0.634536  1
  Zn  Zn126  1  0.397470  0.964170  0.329634  1
  Zn  Zn127  1  0.397470  0.670366  0.035830  1
  Zn  Zn128  1  0.397471  0.964171  0.634536  1
  Zn  Zn129  1  0.397470  0.365464  0.329634  1
  Zn  Zn130  1  0.102529  0.365464  0.035829  1
  Zn  Zn131  1  0.102530  0.670366  0.634536  1
  Zn  Zn132  1  0.102530  0.964170  0.329634  1
  Zn  Zn133  1  0.102530  0.670366  0.035830  1
  Zn  Zn134  1  0.102529  0.964171  0.634536  1
  Zn  Zn135  1  0.102530  0.365464  0.329634  1
  Zn  Zn136  1  0.897471  0.634536  0.964171  1
  Zn  Zn137  1  0.897470  0.329634  0.365464  1
  Zn  Zn138  1  0.897470  0.035830  0.670366  1
  Zn  Zn139  1  0.897470  0.329634  0.964170  1
  Zn  Zn140  1  0.897471  0.035829  0.365464  1
  Zn  Zn141  1  0.897470  0.634536  0.670366  1
