# generated using pymatgen
data_PrAu2
_symmetry_space_group_name_H-M   'P 1'
_cell_length_a   4.72600334
_cell_length_b   6.01498859
_cell_length_c   6.01498859
_cell_angle_alpha   73.89132743
_cell_angle_beta   66.86790984
_cell_angle_gamma   66.86790977
_symmetry_Int_Tables_number   1
_chemical_formula_structural   PrAu2
_chemical_formula_sum   'Pr2 Au4'
_cell_volume   143.05741004
_cell_formula_units_Z   2
loop_
 _symmetry_equiv_pos_site_id
 _symmetry_equiv_pos_as_xyz
  1  'x, y, z'
loop_
 _atom_site_type_symbol
 _atom_site_label
 _atom_site_symmetry_multiplicity
 _atom_site_fract_x
 _atom_site_fract_y
 _atom_site_fract_z
 _atom_site_occupancy
  Pr  Pr0  1  0.534599  0.715401  0.215401  1
  Pr  Pr1  1  0.465401  0.284599  0.784599  1
  Au  Au2  1  0.163521  0.303441  0.369516  1
  Au  Au3  1  0.836479  0.696559  0.630484  1
  Au  Au4  1  0.163521  0.869516  0.803441  1
  Au  Au5  1  0.836479  0.130484  0.196559  1
