# generated using pymatgen
data_Pr(BOs)2
_symmetry_space_group_name_H-M   'P 1'
_cell_length_a   5.66584027
_cell_length_b   5.66584027
_cell_length_c   6.04036152
_cell_angle_alpha   108.63358491
_cell_angle_beta   108.63358491
_cell_angle_gamma   108.58610745
_symmetry_Int_Tables_number   1
_chemical_formula_structural   Pr(BOs)2
_chemical_formula_sum   'Pr2 B4 Os4'
_cell_volume   153.80487311
_cell_formula_units_Z   2
loop_
 _symmetry_equiv_pos_site_id
 _symmetry_equiv_pos_as_xyz
  1  'x, y, z'
loop_
 _atom_site_type_symbol
 _atom_site_label
 _atom_site_symmetry_multiplicity
 _atom_site_fract_x
 _atom_site_fract_y
 _atom_site_fract_z
 _atom_site_occupancy
  Pr  Pr0  1  0.000000  0.000000  0.000000  1
  Pr  Pr1  1  0.250000  0.750001  0.500000  1
  B  B2  1  0.683948  0.316052  0.000000  1
  B  B3  1  0.316052  0.683948  0.000000  1
  B  B4  1  0.934127  0.065875  0.500000  1
  B  B5  1  0.565875  0.434127  0.500000  1
  Os  Os6  1  0.613634  0.113633  0.227267  1
  Os  Os7  1  0.636432  0.636432  0.272866  1
  Os  Os8  1  0.363568  0.363568  0.727135  1
  Os  Os9  1  0.886368  0.386368  0.772734  1
