# generated using pymatgen
data_Pr(BRu)2
_symmetry_space_group_name_H-M   'P 1'
_cell_length_a   5.63936547
_cell_length_b   5.63936547
_cell_length_c   6.00004559
_cell_angle_alpha   108.39320428
_cell_angle_beta   108.39320428
_cell_angle_gamma   109.18170741
_symmetry_Int_Tables_number   1
_chemical_formula_structural   Pr(BRu)2
_chemical_formula_sum   'Pr2 B4 Ru4'
_cell_volume   151.15386449
_cell_formula_units_Z   2
loop_
 _symmetry_equiv_pos_site_id
 _symmetry_equiv_pos_as_xyz
  1  'x, y, z'
loop_
 _atom_site_type_symbol
 _atom_site_label
 _atom_site_symmetry_multiplicity
 _atom_site_fract_x
 _atom_site_fract_y
 _atom_site_fract_z
 _atom_site_occupancy
  Pr  Pr0  1  0.000000  0.000000  0.000000  1
  Pr  Pr1  1  0.250000  0.750000  0.499999  1
  B  B2  1  0.681476  0.318524  0.000000  1
  B  B3  1  0.318524  0.681476  0.000000  1
  B  B4  1  0.931642  0.068359  0.499999  1
  B  B5  1  0.568359  0.431642  0.499999  1
  Ru  Ru6  1  0.613455  0.113455  0.226909  1
  Ru  Ru7  1  0.636379  0.636379  0.272759  1
  Ru  Ru8  1  0.363620  0.363620  0.727240  1
  Ru  Ru9  1  0.886545  0.386546  0.773090  1
