# generated using pymatgen
data_PrHg3
_symmetry_space_group_name_H-M   'P 1'
_cell_length_a   6.87663296
_cell_length_b   6.87663328
_cell_length_c   5.08132942
_cell_angle_alpha   90.00000000
_cell_angle_beta   90.00000000
_cell_angle_gamma   119.99999336
_symmetry_Int_Tables_number   1
_chemical_formula_structural   PrHg3
_chemical_formula_sum   'Pr2 Hg6'
_cell_volume   208.09407802
_cell_formula_units_Z   2
loop_
 _symmetry_equiv_pos_site_id
 _symmetry_equiv_pos_as_xyz
  1  'x, y, z'
loop_
 _atom_site_type_symbol
 _atom_site_label
 _atom_site_symmetry_multiplicity
 _atom_site_fract_x
 _atom_site_fract_y
 _atom_site_fract_z
 _atom_site_occupancy
  Pr  Pr0  1  0.333333  0.666666  0.750000  1
  Pr  Pr1  1  0.666665  0.333333  0.249999  1
  Hg  Hg2  1  0.162886  0.325773  0.249999  1
  Hg  Hg3  1  0.674228  0.837115  0.249999  1
  Hg  Hg4  1  0.162885  0.837115  0.249999  1
  Hg  Hg5  1  0.837115  0.674229  0.750000  1
  Hg  Hg6  1  0.325773  0.162886  0.750000  1
  Hg  Hg7  1  0.837116  0.162886  0.750000  1
