# generated using pymatgen
data_Pr(MoO2)6
_symmetry_space_group_name_H-M   'P 1'
_cell_length_a   8.79076793
_cell_length_b   8.79076818
_cell_length_c   8.79076739
_cell_angle_alpha   108.52280763
_cell_angle_beta   108.52280780
_cell_angle_gamma   111.38516499
_symmetry_Int_Tables_number   1
_chemical_formula_structural   Pr(MoO2)6
_chemical_formula_sum   'Pr2 Mo12 O24'
_cell_volume   522.50876248
_cell_formula_units_Z   2
loop_
 _symmetry_equiv_pos_site_id
 _symmetry_equiv_pos_as_xyz
  1  'x, y, z'
loop_
 _atom_site_type_symbol
 _atom_site_label
 _atom_site_symmetry_multiplicity
 _atom_site_fract_x
 _atom_site_fract_y
 _atom_site_fract_z
 _atom_site_occupancy
  Pr  Pr0  1  0.744852  0.744852  1.000000  1
  Pr  Pr1  1  0.255148  0.255148  0.000000  1
  Mo  Mo2  1  0.835238  0.019516  0.521571  1
  Mo  Mo3  1  0.019516  0.497946  0.184279  1
  Mo  Mo4  1  0.313667  0.835238  0.815721  1
  Mo  Mo5  1  0.497946  0.313667  0.478429  1
  Mo  Mo6  1  0.164762  0.980484  0.478429  1
  Mo  Mo7  1  0.980484  0.502054  0.815721  1
  Mo  Mo8  1  0.686333  0.164762  0.184279  1
  Mo  Mo9  1  0.502054  0.686333  0.521571  1
  Mo  Mo10  1  0.177550  0.355247  0.532797  1
  Mo  Mo11  1  0.355247  0.822450  0.177697  1
  Mo  Mo12  1  0.644753  0.177550  0.822303  1
  Mo  Mo13  1  0.822450  0.644753  0.467203  1
  O  O14  1  0.499116  0.106914  0.286455  1
  O  O15  1  0.106914  0.820458  0.607798  1
  O  O16  1  0.212661  0.499116  0.392202  1
  O  O17  1  0.820458  0.212661  0.713545  1
  O  O18  1  0.500884  0.893086  0.713545  1
  O  O19  1  0.893086  0.179542  0.392202  1
  O  O20  1  0.787339  0.500884  0.607798  1
  O  O21  1  0.179542  0.787339  0.286455  1
  O  O22  1  0.533801  0.852178  0.044705  1
  O  O23  1  0.852178  0.807473  0.318377  1
  O  O24  1  0.489096  0.533801  0.681623  1
  O  O25  1  0.807473  0.489096  0.955295  1
  O  O26  1  0.466199  0.147822  0.955295  1
  O  O27  1  0.147822  0.192527  0.681623  1
  O  O28  1  0.510904  0.466199  0.318377  1
  O  O29  1  0.192527  0.510904  0.044705  1
  O  O30  1  0.834080  0.455446  0.289526  1
  O  O31  1  0.455446  0.165920  0.621366  1
  O  O32  1  0.544554  0.834080  0.378634  1
  O  O33  1  0.165920  0.544554  0.710474  1
  O  O34  1  0.196796  0.153554  0.350349  1
  O  O35  1  0.153554  0.803204  0.956758  1
  O  O36  1  0.846446  0.196796  0.043242  1
  O  O37  1  0.803204  0.846446  0.649651  1
