# generated using pymatgen
data_Pr(MoO2)6
_symmetry_space_group_name_H-M   'P 1'
_cell_length_a   8.37298479
_cell_length_b   8.37298514
_cell_length_c   8.37298453
_cell_angle_alpha   105.81756372
_cell_angle_beta   105.81756445
_cell_angle_gamma   117.05526032
_symmetry_Int_Tables_number   1
_chemical_formula_structural   Pr(MoO2)6
_chemical_formula_sum   'Pr2 Mo12 O24'
_cell_volume   445.86374698
_cell_formula_units_Z   2
loop_
 _symmetry_equiv_pos_site_id
 _symmetry_equiv_pos_as_xyz
  1  'x, y, z'
loop_
 _atom_site_type_symbol
 _atom_site_label
 _atom_site_symmetry_multiplicity
 _atom_site_fract_x
 _atom_site_fract_y
 _atom_site_fract_z
 _atom_site_occupancy
  Pr  Pr0  1  0.792773  0.792773  0.000000  1
  Pr  Pr1  1  0.207227  0.207227  1.000000  1
  Mo  Mo2  1  0.845589  0.997038  0.523806  1
  Mo  Mo3  1  0.997038  0.473231  0.151449  1
  Mo  Mo4  1  0.321783  0.845589  0.848552  1
  Mo  Mo5  1  0.473231  0.321783  0.476194  1
  Mo  Mo6  1  0.154411  0.002962  0.476194  1
  Mo  Mo7  1  0.002962  0.526769  0.848552  1
  Mo  Mo8  1  0.678217  0.154411  0.151449  1
  Mo  Mo9  1  0.526769  0.678217  0.523806  1
  Mo  Mo10  1  0.183601  0.336600  0.520202  1
  Mo  Mo11  1  0.336600  0.816399  0.152999  1
  Mo  Mo12  1  0.663400  0.183601  0.847001  1
  Mo  Mo13  1  0.816399  0.663400  0.479798  1
  O  O14  1  0.497199  0.123647  0.287791  1
  O  O15  1  0.123647  0.835856  0.626448  1
  O  O16  1  0.209408  0.497199  0.373552  1
  O  O17  1  0.835856  0.209408  0.712209  1
  O  O18  1  0.502801  0.876353  0.712209  1
  O  O19  1  0.876353  0.164144  0.373552  1
  O  O20  1  0.790592  0.502801  0.626448  1
  O  O21  1  0.164144  0.790592  0.287791  1
  O  O22  1  0.538746  0.836364  0.044256  1
  O  O23  1  0.836364  0.792109  0.297618  1
  O  O24  1  0.494491  0.538746  0.702382  1
  O  O25  1  0.792109  0.494491  0.955744  1
  O  O26  1  0.461254  0.163636  0.955744  1
  O  O27  1  0.163636  0.207891  0.702382  1
  O  O28  1  0.505509  0.461254  0.297618  1
  O  O29  1  0.207891  0.505509  0.044256  1
  O  O30  1  0.836037  0.460800  0.296837  1
  O  O31  1  0.460800  0.163963  0.624763  1
  O  O32  1  0.539200  0.836037  0.375237  1
  O  O33  1  0.163963  0.539200  0.703163  1
  O  O34  1  0.157329  0.123511  0.280840  1
  O  O35  1  0.123511  0.842671  0.966182  1
  O  O36  1  0.876489  0.157329  0.033818  1
  O  O37  1  0.842671  0.876489  0.719160  1
