# generated using pymatgen
data_Pr2Mo15O28
_symmetry_space_group_name_H-M   'P 1'
_cell_length_a   8.23202530
_cell_length_b   8.28869781
_cell_length_c   9.41653324
_cell_angle_alpha   89.51376133
_cell_angle_beta   90.91161454
_cell_angle_gamma   99.70860918
_symmetry_Int_Tables_number   1
_chemical_formula_structural   Pr2Mo15O28
_chemical_formula_sum   'Pr2 Mo15 O28'
_cell_volume   633.22298355
_cell_formula_units_Z   1
loop_
 _symmetry_equiv_pos_site_id
 _symmetry_equiv_pos_as_xyz
  1  'x, y, z'
loop_
 _atom_site_type_symbol
 _atom_site_label
 _atom_site_symmetry_multiplicity
 _atom_site_fract_x
 _atom_site_fract_y
 _atom_site_fract_z
 _atom_site_occupancy
  Pr  Pr0  1  0.938970  0.023050  0.502987  1
  Pr  Pr1  1  0.458837  0.548113  0.997128  1
  Mo  Mo2  1  0.015000  0.176658  0.146117  1
  Mo  Mo3  1  0.095890  0.755149  0.851261  1
  Mo  Mo4  1  0.243518  0.894825  0.148059  1
  Mo  Mo5  1  0.234878  0.126677  0.868091  1
  Mo  Mo6  1  0.309802  0.487084  0.625255  1
  Mo  Mo7  1  0.372908  0.277426  0.367902  1
  Mo  Mo8  1  0.456754  0.881891  0.626022  1
  Mo  Mo9  1  0.507437  0.661929  0.354641  1
  Mo  Mo10  1  0.597341  0.258378  0.641234  1
  Mo  Mo11  1  0.715925  0.634157  0.637006  1
  Mo  Mo12  1  0.622106  0.045166  0.135818  1
  Mo  Mo13  1  0.775325  0.408635  0.353319  1
  Mo  Mo14  1  0.830467  0.989958  0.858493  1
  Mo  Mo15  1  0.872057  0.760113  0.123128  1
  Mo  Mo16  1  0.956417  0.377223  0.867242  1
  O  O17  1  0.014300  0.161484  0.754567  1
  O  O18  1  0.056692  0.786518  0.259529  1
  O  O19  1  0.119291  0.542146  0.743838  1
  O  O20  1  0.193973  0.306580  0.504033  1
  O  O21  1  0.163883  0.310696  0.992373  1
  O  O22  1  0.258353  0.939321  0.746809  1
  O  O23  1  0.192177  0.100947  0.275735  1
  O  O24  1  0.321596  0.683454  0.502984  1
  O  O25  1  0.275738  0.719608  0.011084  1
  O  O26  1  0.367940  0.465440  0.237269  1
  O  O27  1  0.399958  0.317680  0.767873  1
  O  O28  1  0.455655  0.871445  0.250203  1
  O  O29  1  0.387668  0.078964  0.028739  1
  O  O30  1  0.442178  0.109701  0.515208  1
  O  O31  1  0.490274  0.657569  0.749632  1
  O  O32  1  0.592718  0.250662  0.264752  1
  O  O33  1  0.678657  0.834986  0.012113  1
  O  O34  1  0.661544  0.825890  0.502755  1
  O  O35  1  0.626554  0.049618  0.748932  1
  O  O36  1  0.695508  0.587154  0.216341  1
  O  O37  1  0.745475  0.423182  0.756561  1
  O  O38  1  0.843644  0.995893  0.245301  1
  O  O39  1  0.815984  0.188022  0.003647  1
  O  O40  1  0.785306  0.231911  0.505075  1
  O  O41  1  0.902533  0.821627  0.710977  1
  O  O42  1  0.862786  0.567200  0.477644  1
  O  O43  1  0.922523  0.600622  0.982147  1
  O  O44  1  0.960620  0.353706  0.254108  1
