# generated using pymatgen
data_Pr(PdO2)2
_symmetry_space_group_name_H-M   'P 1'
_cell_length_a   5.96757863
_cell_length_b   5.96757863
_cell_length_c   6.66430276
_cell_angle_alpha   116.59795386
_cell_angle_beta   116.59795381
_cell_angle_gamma   89.99999993
_symmetry_Int_Tables_number   1
_chemical_formula_structural   Pr(PdO2)2
_chemical_formula_sum   'Pr2 Pd4 O8'
_cell_volume   183.69346879
_cell_formula_units_Z   2
loop_
 _symmetry_equiv_pos_site_id
 _symmetry_equiv_pos_as_xyz
  1  'x, y, z'
loop_
 _atom_site_type_symbol
 _atom_site_label
 _atom_site_symmetry_multiplicity
 _atom_site_fract_x
 _atom_site_fract_y
 _atom_site_fract_z
 _atom_site_occupancy
  O  O0  1  0.826678  0.626824  0.351048  1
  O  O1  1  0.724225  0.326678  0.851048  1
  O  O2  1  0.126824  0.024370  0.851048  1
  O  O3  1  0.524370  0.224225  0.351048  1
  O  O4  1  0.173322  0.373176  0.648952  1
  O  O5  1  0.275775  0.673322  0.148952  1
  O  O6  1  0.475630  0.775775  0.648952  1
  O  O7  1  0.873176  0.975630  0.148952  1
  Pd  Pd8  1  0.500000  0.000000  0.000000  1
  Pd  Pd9  1  0.000000  0.000000  0.500000  1
  Pd  Pd10  1  0.500000  0.000000  0.500000  1
  Pd  Pd11  1  0.500000  0.500000  0.000000  1
  Pr  Pr12  1  0.875000  0.625000  0.750000  1
  Pr  Pr13  1  0.125000  0.375000  0.250000  1
