# generated using pymatgen
data_PrZn11
_symmetry_space_group_name_H-M   'P 1'
_cell_length_a   6.85487179
_cell_length_b   8.28966897
_cell_length_c   8.28966878
_cell_angle_alpha   80.15704949
_cell_angle_beta   65.57771267
_cell_angle_gamma   65.57770992
_symmetry_Int_Tables_number   1
_chemical_formula_structural   PrZn11
_chemical_formula_sum   'Pr2 Zn22'
_cell_volume   390.53093321
_cell_formula_units_Z   2
loop_
 _symmetry_equiv_pos_site_id
 _symmetry_equiv_pos_as_xyz
  1  'x, y, z'
loop_
 _atom_site_type_symbol
 _atom_site_label
 _atom_site_symmetry_multiplicity
 _atom_site_fract_x
 _atom_site_fract_y
 _atom_site_fract_z
 _atom_site_occupancy
  Pr  Pr0  1  0.375000  0.250000  0.750000  1
  Pr  Pr1  1  0.625000  0.750000  0.250000  1
  Zn  Zn2  1  0.721393  0.834314  0.577594  1
  Zn  Zn3  1  0.000000  0.000000  0.000000  1
  Zn  Zn4  1  0.201013  0.077594  0.165686  1
  Zn  Zn5  1  0.133301  0.422406  0.165686  1
  Zn  Zn6  1  0.201013  0.665686  0.577594  1
  Zn  Zn7  1  0.866699  0.577594  0.834314  1
  Zn  Zn8  1  0.133301  0.665686  0.922406  1
  Zn  Zn9  1  0.125000  0.750000  0.250000  1
  Zn  Zn10  1  0.866699  0.334314  0.077594  1
  Zn  Zn11  1  0.875000  0.250000  0.750000  1
  Zn  Zn12  1  0.555707  0.577594  0.665686  1
  Zn  Zn13  1  0.500000  0.500000  0.000000  1
  Zn  Zn14  1  0.278607  0.165686  0.422406  1
  Zn  Zn15  1  0.798987  0.334314  0.422406  1
  Zn  Zn16  1  0.721393  0.077594  0.334314  1
  Zn  Zn17  1  0.444293  0.422406  0.334314  1
  Zn  Zn18  1  0.555707  0.165686  0.077594  1
  Zn  Zn19  1  0.278607  0.922406  0.665686  1
  Zn  Zn20  1  0.798987  0.922406  0.834314  1
  Zn  Zn21  1  0.444293  0.834314  0.922406  1
  Zn  Zn22  1  0.000000  0.000000  0.500000  1
  Zn  Zn23  1  0.000000  0.500000  0.500000  1
