# generated using pymatgen
data_PrCoO3
_symmetry_space_group_name_H-M   'P 1'
_cell_length_a   5.52260460
_cell_length_b   5.48505627
_cell_length_c   7.72137230
_cell_angle_alpha   90.00000000
_cell_angle_beta   90.00000000
_cell_angle_gamma   90.00000000
_symmetry_Int_Tables_number   1
_chemical_formula_structural   PrCoO3
_chemical_formula_sum   'Pr4 Co4 O12'
_cell_volume   233.89424218
_cell_formula_units_Z   4
loop_
 _symmetry_equiv_pos_site_id
 _symmetry_equiv_pos_as_xyz
  1  'x, y, z'
loop_
 _atom_site_type_symbol
 _atom_site_label
 _atom_site_symmetry_multiplicity
 _atom_site_fract_x
 _atom_site_fract_y
 _atom_site_fract_z
 _atom_site_occupancy
  O  O0  1  0.717436  0.281833  0.540566  1
  O  O1  1  0.217436  0.218167  0.959434  1
  O  O2  1  0.782564  0.781833  0.459434  1
  O  O3  1  0.282564  0.718167  0.040566  1
  O  O4  1  0.282564  0.718167  0.459434  1
  O  O5  1  0.782564  0.781833  0.040566  1
  O  O6  1  0.217436  0.218167  0.540566  1
  O  O7  1  0.717436  0.281833  0.959434  1
  O  O8  1  0.511488  0.924171  0.750000  1
  O  O9  1  0.011488  0.575829  0.750000  1
  O  O10  1  0.988512  0.424171  0.250000  1
  O  O11  1  0.488512  0.075829  0.250000  1
  Co  Co12  1  0.000000  0.500000  0.500000  1
  Co  Co13  1  0.500000  0.000000  0.000000  1
  Co  Co14  1  0.500000  0.000000  0.500000  1
  Co  Co15  1  0.000000  0.500000  0.000000  1
  Pr  Pr16  1  0.042498  0.989763  0.250000  1
  Pr  Pr17  1  0.542498  0.510237  0.250000  1
  Pr  Pr18  1  0.457502  0.489763  0.750000  1
  Pr  Pr19  1  0.957502  0.010237  0.750000  1
