# generated using pymatgen
data_PrCu6
_symmetry_space_group_name_H-M   'P 1'
_cell_length_a   5.08912458
_cell_length_b   8.07883112
_cell_length_c   10.18971490
_cell_angle_alpha   90.00000000
_cell_angle_beta   90.00000000
_cell_angle_gamma   91.34405691
_symmetry_Int_Tables_number   1
_chemical_formula_structural   PrCu6
_chemical_formula_sum   'Pr4 Cu24'
_cell_volume   418.82648828
_cell_formula_units_Z   4
loop_
 _symmetry_equiv_pos_site_id
 _symmetry_equiv_pos_as_xyz
  1  'x, y, z'
loop_
 _atom_site_type_symbol
 _atom_site_label
 _atom_site_symmetry_multiplicity
 _atom_site_fract_x
 _atom_site_fract_y
 _atom_site_fract_z
 _atom_site_occupancy
  Pr  Pr0  1  0.258457  0.761015  0.064563  1
  Pr  Pr1  1  0.741543  0.238985  0.935437  1
  Pr  Pr2  1  0.258457  0.261015  0.435437  1
  Pr  Pr3  1  0.741543  0.738985  0.564563  1
  Cu  Cu4  1  0.249493  0.900542  0.516343  1
  Cu  Cu5  1  0.006823  0.937256  0.310772  1
  Cu  Cu6  1  0.756957  0.351842  0.642080  1
  Cu  Cu7  1  0.756957  0.851842  0.857920  1
  Cu  Cu8  1  0.749996  0.181751  0.243784  1
  Cu  Cu9  1  0.250004  0.318249  0.743784  1
  Cu  Cu10  1  0.993177  0.562744  0.810772  1
  Cu  Cu11  1  0.243043  0.648158  0.357920  1
  Cu  Cu12  1  0.006823  0.437256  0.189228  1
  Cu  Cu13  1  0.770349  0.935909  0.097163  1
  Cu  Cu14  1  0.229651  0.564091  0.597163  1
  Cu  Cu15  1  0.229651  0.064091  0.902837  1
  Cu  Cu16  1  0.993177  0.062744  0.689228  1
  Cu  Cu17  1  0.496868  0.933307  0.308195  1
  Cu  Cu18  1  0.503132  0.566693  0.808195  1
  Cu  Cu19  1  0.250004  0.818249  0.756216  1
  Cu  Cu20  1  0.249493  0.400542  0.983657  1
  Cu  Cu21  1  0.750507  0.099458  0.483657  1
  Cu  Cu22  1  0.243043  0.148158  0.142080  1
  Cu  Cu23  1  0.770349  0.435909  0.402837  1
  Cu  Cu24  1  0.750507  0.599458  0.016343  1
  Cu  Cu25  1  0.496868  0.433307  0.191805  1
  Cu  Cu26  1  0.749996  0.681751  0.256216  1
  Cu  Cu27  1  0.503132  0.066693  0.691805  1
