# generated using pymatgen
data_PrHfO3
_symmetry_space_group_name_H-M   'P 1'
_cell_length_a   5.88939029
_cell_length_b   8.15655359
_cell_length_c   5.75929175
_cell_angle_alpha   89.99993720
_cell_angle_beta   90.00009498
_cell_angle_gamma   90.00019550
_symmetry_Int_Tables_number   1
_chemical_formula_structural   PrHfO3
_chemical_formula_sum   'Pr4 Hf4 O12'
_cell_volume   276.65983218
_cell_formula_units_Z   4
loop_
 _symmetry_equiv_pos_site_id
 _symmetry_equiv_pos_as_xyz
  1  'x, y, z'
loop_
 _atom_site_type_symbol
 _atom_site_label
 _atom_site_symmetry_multiplicity
 _atom_site_fract_x
 _atom_site_fract_y
 _atom_site_fract_z
 _atom_site_occupancy
  Pr  Pr0  1  0.060710  0.250005  0.004131  1
  Pr  Pr1  1  0.439293  0.749998  0.504128  1
  Pr  Pr2  1  0.560705  0.250007  0.495869  1
  Pr  Pr3  1  0.939295  0.749995  0.995871  1
  Hf  Hf4  1  0.000002  -0.000000  0.499999  1
  Hf  Hf5  1  0.999999  0.500001  0.500001  1
  Hf  Hf6  1  0.499999  1.000000  0.000000  1
  Hf  Hf7  1  0.499999  0.500000  0.999999  1
  O  O8  1  0.030765  0.750001  0.584102  1
  O  O9  1  0.195007  0.542791  0.189046  1
  O  O10  1  0.195007  0.957207  0.189048  1
  O  O11  1  0.304994  0.042792  0.689045  1
  O  O12  1  0.304993  0.457208  0.689043  1
  O  O13  1  0.469235  0.249998  0.084102  1
  O  O14  1  0.530765  0.750002  0.915897  1
  O  O15  1  0.695005  0.542790  0.310957  1
  O  O16  1  0.695005  0.957206  0.310955  1
  O  O17  1  0.804994  0.042793  0.810954  1
  O  O18  1  0.804995  0.457209  0.810955  1
  O  O19  1  0.969234  0.249997  0.415899  1
