# generated using pymatgen
data_PrMo5O8
_symmetry_space_group_name_H-M   'P 1'
_cell_length_a   8.38881815
_cell_length_b   9.36552347
_cell_length_c   10.74474350
_cell_angle_alpha   90.00000000
_cell_angle_beta   109.62363844
_cell_angle_gamma   90.00000000
_symmetry_Int_Tables_number   1
_chemical_formula_structural   PrMo5O8
_chemical_formula_sum   'Pr4 Mo20 O32'
_cell_volume   795.13786468
_cell_formula_units_Z   4
loop_
 _symmetry_equiv_pos_site_id
 _symmetry_equiv_pos_as_xyz
  1  'x, y, z'
loop_
 _atom_site_type_symbol
 _atom_site_label
 _atom_site_symmetry_multiplicity
 _atom_site_fract_x
 _atom_site_fract_y
 _atom_site_fract_z
 _atom_site_occupancy
  O  O0  1  0.417029  0.498715  0.864394  1
  O  O1  1  0.582971  -0.001285  0.635606  1
  O  O2  1  0.582971  0.501285  0.135606  1
  O  O3  1  0.417029  1.001285  0.364394  1
  O  O4  1  0.624508  0.718079  0.328836  1
  O  O5  1  0.375492  0.218079  0.171164  1
  O  O6  1  0.375492  0.281921  0.671164  1
  O  O7  1  0.624508  0.781921  0.828836  1
  O  O8  1  0.207821  0.713990  0.686467  1
  O  O9  1  0.792179  0.213990  0.813533  1
  O  O10  1  0.792179  0.286010  0.313533  1
  O  O11  1  0.207821  0.786010  0.186467  1
  O  O12  1  0.811932  0.718332  0.594504  1
  O  O13  1  0.188068  0.218332  0.905496  1
  O  O14  1  0.188068  0.281668  0.405496  1
  O  O15  1  0.811932  0.781668  0.094504  1
  O  O16  1  0.397023  0.751943  0.510662  1
  O  O17  1  0.602977  0.251943  0.989338  1
  O  O18  1  0.602977  0.248057  0.489338  1
  O  O19  1  0.397023  0.748057  0.010662  1
  O  O20  1  0.984313  0.492942  0.764112  1
  O  O21  1  0.015687  0.992942  0.735888  1
  O  O22  1  0.015687  0.507058  0.235888  1
  O  O23  1  0.984313  0.007058  0.264112  1
  O  O24  1  0.405082  0.003478  0.852159  1
  O  O25  1  0.594918  0.503478  0.647841  1
  O  O26  1  0.594918  0.996522  0.147841  1
  O  O27  1  0.405082  0.496522  0.352159  1
  O  O28  1  0.011195  0.748603  0.910694  1
  O  O29  1  0.988805  0.248603  0.589306  1
  O  O30  1  0.988805  0.251397  0.089306  1
  O  O31  1  0.011195  0.751397  0.410694  1
  Mo  Mo32  1  1.010202  0.641463  0.080651  1
  Mo  Mo33  1  -0.010202  0.141463  0.419349  1
  Mo  Mo34  1  -0.010202  0.358537  0.919349  1
  Mo  Mo35  1  1.010202  0.858537  0.580651  1
  Mo  Mo36  1  0.796091  0.642352  0.773918  1
  Mo  Mo37  1  0.203909  0.142352  0.726082  1
  Mo  Mo38  1  0.203909  0.357648  0.226082  1
  Mo  Mo39  1  0.796091  0.857648  0.273918  1
  Mo  Mo40  1  0.197287  0.625953  0.864420  1
  Mo  Mo41  1  0.802713  0.125953  0.635580  1
  Mo  Mo42  1  0.802713  0.374047  0.135580  1
  Mo  Mo43  1  0.197287  0.874047  0.364420  1
  Mo  Mo44  1  0.403432  0.636044  0.189858  1
  Mo  Mo45  1  0.596568  0.136044  0.310142  1
  Mo  Mo46  1  0.596568  0.363956  0.810142  1
  Mo  Mo47  1  0.403432  0.863956  0.689858  1
  Mo  Mo48  1  0.609039  0.646491  0.982709  1
  Mo  Mo49  1  0.390961  0.146491  0.517291  1
  Mo  Mo50  1  0.390961  0.353509  0.017291  1
  Mo  Mo51  1  0.609039  0.853509  0.482709  1
  Pr  Pr52  1  0.294273  0.983265  0.033576  1
  Pr  Pr53  1  0.705727  0.483265  0.466424  1
  Pr  Pr54  1  0.705727  0.016735  0.966424  1
  Pr  Pr55  1  0.294273  0.516735  0.533576  1
