# generated using pymatgen
data_PrNb5O14
_symmetry_space_group_name_H-M   'P 1'
_cell_length_a   6.34844828
_cell_length_b   7.78965447
_cell_length_c   20.55868699
_cell_angle_alpha   90.00000000
_cell_angle_beta   90.00000000
_cell_angle_gamma   90.00000000
_symmetry_Int_Tables_number   1
_chemical_formula_structural   PrNb5O14
_chemical_formula_sum   'Pr4 Nb20 O56'
_cell_volume   1016.67268155
_cell_formula_units_Z   4
loop_
 _symmetry_equiv_pos_site_id
 _symmetry_equiv_pos_as_xyz
  1  'x, y, z'
loop_
 _atom_site_type_symbol
 _atom_site_label
 _atom_site_symmetry_multiplicity
 _atom_site_fract_x
 _atom_site_fract_y
 _atom_site_fract_z
 _atom_site_occupancy
  O  O0  1  0.328886  0.250000  0.569605  1
  O  O1  1  0.328886  0.250000  0.930395  1
  O  O2  1  0.671114  0.750000  0.430395  1
  O  O3  1  0.671114  0.750000  0.069605  1
  O  O4  1  0.335008  0.962343  0.472931  1
  O  O5  1  0.335008  0.537657  0.027069  1
  O  O6  1  0.664992  0.462343  0.527069  1
  O  O7  1  0.664992  0.037657  0.972931  1
  O  O8  1  0.664992  0.037657  0.527069  1
  O  O9  1  0.664992  0.462343  0.972931  1
  O  O10  1  0.335008  0.537657  0.472931  1
  O  O11  1  0.335008  0.962343  0.027069  1
  O  O12  1  0.610909  0.250000  0.421727  1
  O  O13  1  0.610909  0.250000  0.078273  1
  O  O14  1  0.389091  0.750000  0.578273  1
  O  O15  1  0.389091  0.750000  0.921727  1
  O  O16  1  0.910374  0.750000  0.651317  1
  O  O17  1  0.910374  0.750000  0.848683  1
  O  O18  1  0.089626  0.250000  0.348683  1
  O  O19  1  0.234227  0.494005  0.685869  1
  O  O20  1  0.089626  0.250000  0.151317  1
  O  O21  1  0.499905  0.250000  0.250000  1
  O  O22  1  0.765773  0.994005  0.314131  1
  O  O23  1  0.765773  0.505995  0.185869  1
  O  O24  1  0.925787  0.018955  0.067071  1
  O  O25  1  0.925787  0.481045  0.432929  1
  O  O26  1  0.074213  0.518955  0.932929  1
  O  O27  1  0.074213  0.981045  0.567071  1
  O  O28  1  0.074213  0.981045  0.932929  1
  O  O29  1  0.074213  0.518955  0.567071  1
  O  O30  1  0.925787  0.481045  0.067071  1
  O  O31  1  0.925787  0.018955  0.432929  1
  O  O32  1  0.158775  0.985714  0.250000  1
  O  O33  1  0.158775  0.514286  0.250000  1
  O  O34  1  0.841225  0.485714  0.750000  1
  O  O35  1  0.841225  0.014286  0.750000  1
  O  O36  1  0.609067  0.004766  0.846740  1
  O  O37  1  0.609067  0.495234  0.653260  1
  O  O38  1  0.390933  0.504766  0.153260  1
  O  O39  1  0.390933  0.995234  0.346740  1
  O  O40  1  0.390933  0.995234  0.153260  1
  O  O41  1  0.390933  0.504766  0.346740  1
  O  O42  1  0.609067  0.495234  0.846740  1
  O  O43  1  0.609067  0.004766  0.653260  1
  O  O44  1  0.504375  0.750000  0.250000  1
  O  O45  1  0.495625  0.250000  0.750000  1
  O  O46  1  0.086408  0.750000  0.133874  1
  O  O47  1  0.086408  0.750000  0.366126  1
  O  O48  1  0.913592  0.250000  0.866126  1
  O  O49  1  0.913592  0.250000  0.633874  1
  O  O50  1  0.765773  0.994005  0.185869  1
  O  O51  1  0.765773  0.505995  0.314131  1
  O  O52  1  0.234227  0.494005  0.814131  1
  O  O53  1  0.234227  0.005995  0.685869  1
  O  O54  1  0.234227  0.005995  0.814131  1
  O  O55  1  0.500095  0.750000  0.750000  1
  Nb  Nb56  1  0.497161  0.001307  0.750000  1
  Nb  Nb57  1  0.497161  0.498693  0.750000  1
  Nb  Nb58  1  0.502839  0.501307  0.250000  1
  Nb  Nb59  1  0.502839  0.998693  0.250000  1
  Nb  Nb60  1  0.051182  0.001789  0.343411  1
  Nb  Nb61  1  0.051182  0.498211  0.156589  1
  Nb  Nb62  1  0.948818  0.501789  0.656589  1
  Nb  Nb63  1  0.948818  0.998211  0.843411  1
  Nb  Nb64  1  0.948818  0.998211  0.656589  1
  Nb  Nb65  1  0.948818  0.501789  0.843411  1
  Nb  Nb66  1  0.051182  0.498211  0.343411  1
  Nb  Nb67  1  0.051182  0.001789  0.156589  1
  Nb  Nb68  1  0.410744  0.002219  0.577212  1
  Nb  Nb69  1  0.410744  0.497781  0.922788  1
  Nb  Nb70  1  0.589256  0.502219  0.422788  1
  Nb  Nb71  1  0.589256  0.997781  0.077212  1
  Nb  Nb72  1  0.589256  0.997781  0.422788  1
  Nb  Nb73  1  0.589256  0.502219  0.077212  1
  Nb  Nb74  1  0.410744  0.497781  0.577212  1
  Nb  Nb75  1  0.410744  0.002219  0.922788  1
  Pr  Pr76  1  0.953973  0.250000  0.514176  1
  Pr  Pr77  1  0.953973  0.250000  0.985824  1
  Pr  Pr78  1  0.046027  0.750000  0.485824  1
  Pr  Pr79  1  0.046027  0.750000  0.014176  1
