# generated using pymatgen
data_Pr2NiO4
_symmetry_space_group_name_H-M   'P 1'
_cell_length_a   5.44626304
_cell_length_b   5.69797650
_cell_length_c   6.73203717
_cell_angle_alpha   90.00000000
_cell_angle_beta   113.86000766
_cell_angle_gamma   90.00000000
_symmetry_Int_Tables_number   1
_chemical_formula_structural   Pr2NiO4
_chemical_formula_sum   'Pr4 Ni2 O8'
_cell_volume   191.05870278
_cell_formula_units_Z   2
loop_
 _symmetry_equiv_pos_site_id
 _symmetry_equiv_pos_as_xyz
  1  'x, y, z'
loop_
 _atom_site_type_symbol
 _atom_site_label
 _atom_site_symmetry_multiplicity
 _atom_site_fract_x
 _atom_site_fract_y
 _atom_site_fract_z
 _atom_site_occupancy
  O  O0  1  0.321081  0.431542  0.642163  1
  O  O1  1  0.678919  0.568458  0.357837  1
  O  O2  1  0.178919  0.931542  0.357837  1
  O  O3  1  0.821081  0.068458  0.642163  1
  O  O4  1  0.269717  0.250000  0.039433  1
  O  O5  1  0.230283  0.750000  0.960567  1
  O  O6  1  0.769717  0.250000  0.039433  1
  O  O7  1  0.730283  0.750000  0.960567  1
  Ni  Ni8  1  0.500000  0.500000  0.000000  1
  Ni  Ni9  1  0.000000  0.000000  0.000000  1
  Pr  Pr10  1  0.136927  0.516383  0.273855  1
  Pr  Pr11  1  0.863073  0.483617  0.726145  1
  Pr  Pr12  1  0.363073  0.016383  0.726145  1
  Pr  Pr13  1  0.636927  0.983617  0.273855  1
