# generated using pymatgen
data_Co(WO4)2
_symmetry_space_group_name_H-M   'P 1'
_cell_length_a   5.09084300
_cell_length_b   5.56563955
_cell_length_c   5.80003218
_cell_angle_alpha   71.89681824
_cell_angle_beta   90.41029959
_cell_angle_gamma   117.61021559
_symmetry_Int_Tables_number   1
_chemical_formula_structural   Co(WO4)2
_chemical_formula_sum   'Co1 W2 O8'
_cell_volume   136.57466503
_cell_formula_units_Z   1
loop_
 _symmetry_equiv_pos_site_id
 _symmetry_equiv_pos_as_xyz
  1  'x, y, z'
loop_
 _atom_site_type_symbol
 _atom_site_label
 _atom_site_symmetry_multiplicity
 _atom_site_fract_x
 _atom_site_fract_y
 _atom_site_fract_z
 _atom_site_occupancy
  O  O0  1  0.679985  0.723937  0.538954  1
  O  O1  1  0.183171  0.710767  0.323826  1
  O  O2  1  0.273030  0.753881  0.823436  1
  O  O3  1  0.281747  0.227387  0.924693  1
  O  O4  1  0.320015  0.276063  0.461045  1
  O  O5  1  0.816830  0.289234  0.676174  1
  O  O6  1  0.718254  0.772614  0.075306  1
  O  O7  1  0.726971  0.246120  0.176564  1
  Co  Co8  1  0.500000  0.000000  1.000000  1
  W  W9  1  0.262227  0.508691  0.665625  1
  W  W10  1  0.737774  0.491310  0.334375  1
