# generated using pymatgen
data_Pr2Zn17
_symmetry_space_group_name_H-M   'P 1'
_cell_length_a   9.12046787
_cell_length_b   9.12031477
_cell_length_c   8.89736468
_cell_angle_alpha   90.00379921
_cell_angle_beta   89.99582765
_cell_angle_gamma   120.02707988
_symmetry_Int_Tables_number   1
_chemical_formula_structural   Pr2Zn17
_chemical_formula_sum   'Pr4 Zn34'
_cell_volume   640.76737904
_cell_formula_units_Z   2
loop_
 _symmetry_equiv_pos_site_id
 _symmetry_equiv_pos_as_xyz
  1  'x, y, z'
loop_
 _atom_site_type_symbol
 _atom_site_label
 _atom_site_symmetry_multiplicity
 _atom_site_fract_x
 _atom_site_fract_y
 _atom_site_fract_z
 _atom_site_occupancy
  Pr  Pr0  1  0.000027  0.999957  0.249991  1
  Pr  Pr1  1  0.999958  0.000042  0.749998  1
  Pr  Pr2  1  0.333349  0.666649  0.750005  1
  Pr  Pr3  1  0.666652  0.333342  0.250004  1
  Zn  Zn4  1  0.162575  0.325173  0.979669  1
  Zn  Zn5  1  0.837398  0.674774  0.479681  1
  Zn  Zn6  1  0.674792  0.837420  0.979672  1
  Zn  Zn7  1  0.162631  0.837360  0.979608  1
  Zn  Zn8  1  0.837350  0.162630  0.479599  1
  Zn  Zn9  1  0.325213  0.162587  0.479691  1
  Zn  Zn10  1  0.837407  0.674811  0.020319  1
  Zn  Zn11  1  0.837358  0.162657  0.020385  1
  Zn  Zn12  1  0.325198  0.162586  0.020325  1
  Zn  Zn13  1  0.674806  0.837405  0.520308  1
  Zn  Zn14  1  0.162645  0.837354  0.520386  1
  Zn  Zn15  1  0.162589  0.325206  0.520311  1
  Zn  Zn16  1  0.329316  0.958793  0.250000  1
  Zn  Zn17  1  0.670674  0.041203  0.749993  1
  Zn  Zn18  1  0.041288  0.370590  0.249995  1
  Zn  Zn19  1  0.629522  0.670667  0.249996  1
  Zn  Zn20  1  0.370458  0.329315  0.749997  1
  Zn  Zn21  1  0.958757  0.629457  0.750004  1
  Zn  Zn22  1  0.370592  0.041289  0.750001  1
  Zn  Zn23  1  0.670679  0.629517  0.749991  1
  Zn  Zn24  1  0.958785  0.329325  0.749999  1
  Zn  Zn25  1  0.041190  0.670673  0.249999  1
  Zn  Zn26  1  0.329313  0.370454  0.250006  1
  Zn  Zn27  1  0.629396  0.958718  0.249985  1
  Zn  Zn28  1  0.499991  0.999997  0.999990  1
  Zn  Zn29  1  0.500000  0.999984  0.499996  1
  Zn  Zn30  1  0.000030  0.500013  0.999998  1
  Zn  Zn31  1  0.499976  0.500011  0.999998  1
  Zn  Zn32  1  0.499995  0.499989  0.499990  1
  Zn  Zn33  1  0.999992  0.499986  0.500004  1
  Zn  Zn34  1  0.333355  0.666662  0.103705  1
  Zn  Zn35  1  0.666674  0.333336  0.603722  1
  Zn  Zn36  1  0.666675  0.333392  0.896346  1
  Zn  Zn37  1  0.333292  0.666674  0.396345  1
