# generated using pymatgen
data_Pr5(RuO6)2
_symmetry_space_group_name_H-M   'P 1'
_cell_length_a   6.02681611
_cell_length_b   7.12501047
_cell_length_c   7.74379386
_cell_angle_alpha   105.77034080
_cell_angle_beta   90.00000000
_cell_angle_gamma   115.01995222
_symmetry_Int_Tables_number   1
_chemical_formula_structural   Pr5(RuO6)2
_chemical_formula_sum   'Pr5 Ru2 O12'
_cell_volume   287.45079830
_cell_formula_units_Z   1
loop_
 _symmetry_equiv_pos_site_id
 _symmetry_equiv_pos_as_xyz
  1  'x, y, z'
loop_
 _atom_site_type_symbol
 _atom_site_label
 _atom_site_symmetry_multiplicity
 _atom_site_fract_x
 _atom_site_fract_y
 _atom_site_fract_z
 _atom_site_occupancy
  Pr  Pr0  1  0.306616  0.613232  0.642410  1
  Pr  Pr1  1  0.693384  0.386768  0.357590  1
  Pr  Pr2  1  0.690653  0.381306  0.832796  1
  Pr  Pr3  1  0.309347  0.618694  0.167204  1
  Pr  Pr4  1  0.000000  0.000000  0.500000  1
  Ru  Ru5  1  0.765119  0.000000  0.000000  1
  Ru  Ru6  1  0.234881  0.000000  0.000000  1
  O  O7  1  0.095513  0.690401  0.422086  1
  O  O8  1  0.999122  0.998243  0.814887  1
  O  O9  1  0.405111  0.309599  0.577914  1
  O  O10  1  0.499821  0.999642  0.828994  1
  O  O11  1  0.096008  0.682035  0.921513  1
  O  O12  1  0.904487  0.309599  0.577914  1
  O  O13  1  0.000878  0.001757  0.185113  1
  O  O14  1  0.594889  0.690401  0.422086  1
  O  O15  1  0.500179  0.000358  0.171006  1
  O  O16  1  0.586027  0.682035  0.921513  1
  O  O17  1  0.413973  0.317965  0.078487  1
  O  O18  1  0.903992  0.317965  0.078487  1
