# generated using pymatgen
data_Pr3RuO7
_symmetry_space_group_name_H-M   'P 1'
_cell_length_a   6.69256843
_cell_length_b   6.69256844
_cell_length_c   7.65552095
_cell_angle_alpha   90.00000000
_cell_angle_beta   90.00000000
_cell_angle_gamma   111.73125132
_symmetry_Int_Tables_number   1
_chemical_formula_structural   Pr3RuO7
_chemical_formula_sum   'Pr6 Ru2 O14'
_cell_volume   318.52515411
_cell_formula_units_Z   2
loop_
 _symmetry_equiv_pos_site_id
 _symmetry_equiv_pos_as_xyz
  1  'x, y, z'
loop_
 _atom_site_type_symbol
 _atom_site_label
 _atom_site_symmetry_multiplicity
 _atom_site_fract_x
 _atom_site_fract_y
 _atom_site_fract_z
 _atom_site_occupancy
  O  O0  1  0.581350  0.581350  0.750000  1
  O  O1  1  0.418650  0.418650  0.250000  1
  O  O2  1  0.103854  0.840967  0.750000  1
  O  O3  1  0.896146  0.159033  0.250000  1
  O  O4  1  0.840967  0.103854  0.750000  1
  O  O5  1  0.159033  0.896146  0.250000  1
  O  O6  1  0.190476  0.440461  0.960340  1
  O  O7  1  0.809524  0.559539  0.460340  1
  O  O8  1  0.440461  0.190476  0.960340  1
  O  O9  1  0.559539  0.809524  0.460340  1
  O  O10  1  0.190476  0.440461  0.539660  1
  O  O11  1  0.809524  0.559539  0.039660  1
  O  O12  1  0.559539  0.809524  0.039660  1
  O  O13  1  0.440461  0.190476  0.539660  1
  Ru  Ru14  1  0.500000  0.500000  0.500000  1
  Ru  Ru15  1  0.500000  0.500000  0.000000  1
  Pr  Pr16  1  0.911083  0.470564  0.750000  1
  Pr  Pr17  1  0.088917  0.529436  0.250000  1
  Pr  Pr18  1  0.470564  0.911083  0.750000  1
  Pr  Pr19  1  0.529436  0.088917  0.250000  1
  Pr  Pr20  1  0.000000  0.000000  0.500000  1
  Pr  Pr21  1  0.000000  0.000000  0.000000  1
