# generated using pymatgen
data_Pr3Y
_symmetry_space_group_name_H-M   'P 1'
_cell_length_a   7.43114935
_cell_length_b   7.43114912
_cell_length_c   5.97828994
_cell_angle_alpha   90.00000000
_cell_angle_beta   90.00000000
_cell_angle_gamma   119.99999654
_symmetry_Int_Tables_number   1
_chemical_formula_structural   Pr3Y
_chemical_formula_sum   'Pr6 Y2'
_cell_volume   285.90357560
_cell_formula_units_Z   2
loop_
 _symmetry_equiv_pos_site_id
 _symmetry_equiv_pos_as_xyz
  1  'x, y, z'
loop_
 _atom_site_type_symbol
 _atom_site_label
 _atom_site_symmetry_multiplicity
 _atom_site_fract_x
 _atom_site_fract_y
 _atom_site_fract_z
 _atom_site_occupancy
  Pr  Pr0  1  0.167202  0.334404  0.250000  1
  Pr  Pr1  1  0.665597  0.832797  0.250000  1
  Pr  Pr2  1  0.167201  0.832797  0.250000  1
  Pr  Pr3  1  0.832797  0.665597  0.750000  1
  Pr  Pr4  1  0.334403  0.167201  0.750000  1
  Pr  Pr5  1  0.832797  0.167201  0.750000  1
  Y  Y6  1  0.333334  0.666668  0.750000  1
  Y  Y7  1  0.666668  0.333334  0.250000  1
