# generated using pymatgen
data_Pr7Mn8O24
_symmetry_space_group_name_H-M   'P 1'
_cell_length_a   11.05481972
_cell_length_b   7.79020707
_cell_length_c   9.56774464
_cell_angle_alpha   65.97536153
_cell_angle_beta   54.71926239
_cell_angle_gamma   45.12330613
_symmetry_Int_Tables_number   1
_chemical_formula_structural   Pr7Mn8O24
_chemical_formula_sum   'Pr7 Mn8 O24'
_cell_volume   476.64440201
_cell_formula_units_Z   1
loop_
 _symmetry_equiv_pos_site_id
 _symmetry_equiv_pos_as_xyz
  1  'x, y, z'
loop_
 _atom_site_type_symbol
 _atom_site_label
 _atom_site_symmetry_multiplicity
 _atom_site_fract_x
 _atom_site_fract_y
 _atom_site_fract_z
 _atom_site_occupancy
  Pr  Pr0  1  0.352033  0.032231  0.255265  1
  Pr  Pr1  1  0.138381  0.462096  0.748744  1
  Pr  Pr2  1  0.361352  0.525080  0.252285  1
  Pr  Pr3  1  0.858291  0.032640  0.242717  1
  Pr  Pr4  1  0.634140  0.474812  0.749174  1
  Pr  Pr5  1  0.864684  0.524984  0.245746  1
  Pr  Pr6  1  0.639818  0.985775  0.748937  1
  Mn  Mn7  1  0.250250  0.997081  0.997565  1
  Mn  Mn8  1  0.998417  0.500605  0.502208  1
  Mn  Mn9  1  0.247773  0.509229  0.994932  1
  Mn  Mn10  1  0.755112  0.001627  0.994233  1
  Mn  Mn11  1  0.498599  0.997545  0.500389  1
  Mn  Mn12  1  0.493584  0.509192  0.503247  1
  Mn  Mn13  1  0.751103  0.501218  0.995794  1
  Mn  Mn14  1  0.000541  0.001175  0.503698  1
  O  O15  1  0.210405  0.270843  0.039851  1
  O  O16  1  0.161229  0.493304  0.249803  1
  O  O17  1  0.240596  0.246934  0.518895  1
  O  O18  1  0.010521  0.247030  0.979413  1
  O  O19  1  0.003481  0.727214  0.541430  1
  O  O20  1  0.095116  0.987519  0.249561  1
  O  O21  1  0.408271  0.011255  0.748906  1
  O  O22  1  0.698132  0.281712  0.043970  1
  O  O23  1  0.501198  0.270901  0.457985  1
  O  O24  1  0.478563  0.782707  0.040231  1
  O  O25  1  0.273111  0.766693  0.448734  1
  O  O26  1  0.353783  0.468741  0.749099  1
  O  O27  1  0.661411  0.494249  0.248279  1
  O  O28  1  0.734677  0.224612  0.530484  1
  O  O29  1  0.516334  0.224835  0.967185  1
  O  O30  1  0.537566  0.703043  0.520428  1
  O  O31  1  0.308681  0.703114  0.977828  1
  O  O32  1  0.595555  0.987231  0.248436  1
  O  O33  1  0.880949  0.029808  0.749027  1
  O  O34  1  0.992733  0.281922  0.454221  1
  O  O35  1  0.972828  0.766632  0.049594  1
  O  O36  1  0.769969  0.782600  0.457382  1
  O  O37  1  0.817781  0.537945  0.748856  1
  O  O38  1  0.796232  0.727223  0.956215  1
