# generated using pymatgen
data_PrCu(MoO4)2
_symmetry_space_group_name_H-M   'P 1'
_cell_length_a   10.09320111
_cell_length_b   10.53351705
_cell_length_c   15.02929507
_cell_angle_alpha   90.00000000
_cell_angle_beta   90.00000000
_cell_angle_gamma   90.00000000
_symmetry_Int_Tables_number   1
_chemical_formula_structural   PrCu(MoO4)2
_chemical_formula_sum   'Pr8 Cu8 Mo16 O64'
_cell_volume   1597.86815092
_cell_formula_units_Z   8
loop_
 _symmetry_equiv_pos_site_id
 _symmetry_equiv_pos_as_xyz
  1  'x, y, z'
loop_
 _atom_site_type_symbol
 _atom_site_label
 _atom_site_symmetry_multiplicity
 _atom_site_fract_x
 _atom_site_fract_y
 _atom_site_fract_z
 _atom_site_occupancy
  Pr  Pr0  1  0.777143  0.034900  0.103619  1
  Pr  Pr1  1  0.277143  0.465100  0.103619  1
  Pr  Pr2  1  0.222857  0.465100  0.603619  1
  Pr  Pr3  1  0.722857  0.534900  0.896381  1
  Pr  Pr4  1  0.777143  0.534900  0.396381  1
  Pr  Pr5  1  0.277143  0.965100  0.396381  1
  Pr  Pr6  1  0.722857  0.034900  0.603619  1
  Pr  Pr7  1  0.222857  0.965100  0.896381  1
  Cu  Cu8  1  0.194404  0.818998  0.693915  1
  Cu  Cu9  1  0.305596  0.818998  0.193915  1
  Cu  Cu10  1  0.805596  0.181002  0.306085  1
  Cu  Cu11  1  0.694404  0.681002  0.693915  1
  Cu  Cu12  1  0.805596  0.681002  0.193915  1
  Cu  Cu13  1  0.694404  0.181002  0.806085  1
  Cu  Cu14  1  0.194404  0.318998  0.806085  1
  Cu  Cu15  1  0.305596  0.318998  0.306085  1
  Mo  Mo16  1  0.497701  0.278677  0.441682  1
  Mo  Mo17  1  0.171333  0.102870  0.153425  1
  Mo  Mo18  1  0.671333  0.897130  0.346575  1
  Mo  Mo19  1  0.171333  0.602870  0.346575  1
  Mo  Mo20  1  0.997701  0.221323  0.441682  1
  Mo  Mo21  1  0.997701  0.721323  0.058318  1
  Mo  Mo22  1  0.002299  0.778677  0.558318  1
  Mo  Mo23  1  0.328667  0.102870  0.653425  1
  Mo  Mo24  1  0.328667  0.602870  0.846575  1
  Mo  Mo25  1  0.828667  0.397130  0.653425  1
  Mo  Mo26  1  0.828667  0.897130  0.846575  1
  Mo  Mo27  1  0.502299  0.721323  0.558318  1
  Mo  Mo28  1  0.002299  0.278677  0.941682  1
  Mo  Mo29  1  0.497701  0.778677  0.058318  1
  Mo  Mo30  1  0.502299  0.221323  0.941682  1
  Mo  Mo31  1  0.671333  0.397130  0.153425  1
  O  O32  1  0.114741  0.684603  0.631450  1
  O  O33  1  0.244705  0.987127  0.725879  1
  O  O34  1  0.395181  0.333210  0.994503  1
  O  O35  1  0.003524  0.412254  0.665184  1
  O  O36  1  0.604819  0.166790  0.494503  1
  O  O37  1  0.255295  0.487127  0.274121  1
  O  O38  1  0.592083  0.135426  0.024251  1
  O  O39  1  0.244705  0.487127  0.774121  1
  O  O40  1  0.895181  0.166790  0.994503  1
  O  O41  1  0.407917  0.364574  0.524251  1
  O  O42  1  0.902710  0.384369  0.875997  1
  O  O43  1  0.597290  0.384369  0.375997  1
  O  O44  1  0.785790  0.921700  0.959933  1
  O  O45  1  0.725687  0.738856  0.315758  1
  O  O46  1  0.274313  0.261144  0.684242  1
  O  O47  1  0.285790  0.578300  0.959933  1
  O  O48  1  0.395181  0.833210  0.505497  1
  O  O49  1  0.402710  0.615631  0.624003  1
  O  O50  1  0.097290  0.615631  0.124003  1
  O  O51  1  0.885259  0.315397  0.368550  1
  O  O52  1  0.385259  0.684603  0.131450  1
  O  O53  1  0.214210  0.578300  0.459933  1
  O  O54  1  0.714210  0.421700  0.040067  1
  O  O55  1  0.996476  0.087746  0.165184  1
  O  O56  1  0.592083  0.635426  0.475749  1
  O  O57  1  0.274313  0.761144  0.815758  1
  O  O58  1  0.902710  0.884369  0.624003  1
  O  O59  1  0.774313  0.238856  0.684242  1
  O  O60  1  0.496476  0.912254  0.334816  1
  O  O61  1  0.725687  0.238856  0.184242  1
  O  O62  1  0.597290  0.884369  0.124003  1
  O  O63  1  0.225687  0.261144  0.184242  1
  O  O64  1  0.714210  0.921700  0.459933  1
  O  O65  1  0.907917  0.135426  0.524251  1
  O  O66  1  0.907917  0.635426  0.975749  1
  O  O67  1  0.114741  0.184603  0.868550  1
  O  O68  1  0.402710  0.115631  0.875997  1
  O  O69  1  0.255295  0.987127  0.225879  1
  O  O70  1  0.614741  0.815397  0.631450  1
  O  O71  1  0.385259  0.184603  0.368550  1
  O  O72  1  0.503524  0.087746  0.665184  1
  O  O73  1  0.885259  0.815397  0.131450  1
  O  O74  1  0.092083  0.864574  0.475749  1
  O  O75  1  0.104819  0.333210  0.494503  1
  O  O76  1  0.092083  0.364574  0.024251  1
  O  O77  1  0.744705  0.512873  0.725879  1
  O  O78  1  0.755295  0.012873  0.274121  1
  O  O79  1  0.407917  0.864574  0.975749  1
  O  O80  1  0.225687  0.761144  0.315758  1
  O  O81  1  0.604819  0.666790  0.005497  1
  O  O82  1  0.895181  0.666790  0.505497  1
  O  O83  1  0.097290  0.115631  0.375997  1
  O  O84  1  0.744705  0.012873  0.774121  1
  O  O85  1  0.003524  0.912254  0.834816  1
  O  O86  1  0.214210  0.078300  0.040067  1
  O  O87  1  0.774313  0.738856  0.815758  1
  O  O88  1  0.785790  0.421700  0.540067  1
  O  O89  1  0.996476  0.587746  0.334816  1
  O  O90  1  0.755295  0.512873  0.225879  1
  O  O91  1  0.285790  0.078300  0.540067  1
  O  O92  1  0.614741  0.315397  0.868550  1
  O  O93  1  0.503524  0.587746  0.834816  1
  O  O94  1  0.496476  0.412254  0.165184  1
  O  O95  1  0.104819  0.833210  0.005497  1
