# generated using pymatgen
data_Pr2Fe14B
_symmetry_space_group_name_H-M   'P 1'
_cell_length_a   8.75066471
_cell_length_b   8.75066471
_cell_length_c   12.61242546
_cell_angle_alpha   90.00000000
_cell_angle_beta   90.00000000
_cell_angle_gamma   90.00000000
_symmetry_Int_Tables_number   1
_chemical_formula_structural   Pr2Fe14B
_chemical_formula_sum   'Pr8 Fe56 B4'
_cell_volume   965.78554295
_cell_formula_units_Z   4
loop_
 _symmetry_equiv_pos_site_id
 _symmetry_equiv_pos_as_xyz
  1  'x, y, z'
loop_
 _atom_site_type_symbol
 _atom_site_label
 _atom_site_symmetry_multiplicity
 _atom_site_fract_x
 _atom_site_fract_y
 _atom_site_fract_z
 _atom_site_occupancy
  Pr  Pr0  1  0.241782  0.241782  0.000000  1
  Pr  Pr1  1  0.258218  0.741782  0.500000  1
  Pr  Pr2  1  0.679993  0.679993  0.500000  1
  Pr  Pr3  1  0.758218  0.758218  0.000000  1
  Pr  Pr4  1  0.320007  0.320007  0.500000  1
  Pr  Pr5  1  0.179993  0.820007  0.000000  1
  Pr  Pr6  1  0.741782  0.258218  0.500000  1
  Pr  Pr7  1  0.820007  0.179993  0.000000  1
  Fe  Fe8  1  0.474819  0.856417  0.678063  1
  Fe  Fe9  1  0.474819  0.856417  0.321937  1
  Fe  Fe10  1  0.304887  0.304887  0.250108  1
  Fe  Fe11  1  0.143583  0.525181  0.321937  1
  Fe  Fe12  1  0.732447  0.958660  0.614464  1
  Fe  Fe13  1  0.695113  0.695113  0.250108  1
  Fe  Fe14  1  0.000000  0.000000  0.101151  1
  Fe  Fe15  1  0.856417  0.474819  0.321937  1
  Fe  Fe16  1  0.767553  0.458660  0.885536  1
  Fe  Fe17  1  0.602595  0.397405  0.744922  1
  Fe  Fe18  1  0.267553  0.041340  0.385536  1
  Fe  Fe19  1  0.974819  0.643583  0.821937  1
  Fe  Fe20  1  0.732447  0.958660  0.385536  1
  Fe  Fe21  1  0.143583  0.525181  0.678063  1
  Fe  Fe22  1  0.897405  0.897405  0.755078  1
  Fe  Fe23  1  0.856417  0.474819  0.678063  1
  Fe  Fe24  1  0.500000  0.500000  0.398849  1
  Fe  Fe25  1  0.304887  0.304887  0.749892  1
  Fe  Fe26  1  0.500000  0.500000  0.601151  1
  Fe  Fe27  1  0.267553  0.041340  0.614464  1
  Fe  Fe28  1  0.541340  0.232447  0.885536  1
  Fe  Fe29  1  0.458660  0.767553  0.885536  1
  Fe  Fe30  1  0.102595  0.102595  0.755078  1
  Fe  Fe31  1  0.541340  0.232447  0.114464  1
  Fe  Fe32  1  0.767553  0.458660  0.114464  1
  Fe  Fe33  1  0.041340  0.267553  0.385536  1
  Fe  Fe34  1  0.102595  0.102595  0.244922  1
  Fe  Fe35  1  0.025181  0.356417  0.821937  1
  Fe  Fe36  1  0.897405  0.897405  0.244922  1
  Fe  Fe37  1  0.356417  0.025181  0.178063  1
  Fe  Fe38  1  0.458660  0.767553  0.114464  1
  Fe  Fe39  1  0.602595  0.397405  0.255078  1
  Fe  Fe40  1  0.695113  0.695113  0.749892  1
  Fe  Fe41  1  0.804887  0.195113  0.750108  1
  Fe  Fe42  1  0.232447  0.541340  0.114464  1
  Fe  Fe43  1  0.025181  0.356417  0.178063  1
  Fe  Fe44  1  0.643583  0.974819  0.178063  1
  Fe  Fe45  1  0.397405  0.602595  0.255078  1
  Fe  Fe46  1  0.958660  0.732447  0.614464  1
  Fe  Fe47  1  0.500000  0.000000  0.000000  1
  Fe  Fe48  1  0.804887  0.195113  0.249892  1
  Fe  Fe49  1  0.041340  0.267553  0.614464  1
  Fe  Fe50  1  0.525181  0.143583  0.678063  1
  Fe  Fe51  1  0.643583  0.974819  0.821937  1
  Fe  Fe52  1  0.000000  0.000000  0.898849  1
  Fe  Fe53  1  0.958660  0.732447  0.385536  1
  Fe  Fe54  1  0.525181  0.143583  0.321937  1
  Fe  Fe55  1  0.974819  0.643583  0.178063  1
  Fe  Fe56  1  0.195113  0.804887  0.249892  1
  Fe  Fe57  1  0.195113  0.804887  0.750108  1
  Fe  Fe58  1  0.000000  0.500000  0.000000  1
  Fe  Fe59  1  0.397405  0.602595  0.744922  1
  Fe  Fe60  1  0.356417  0.025181  0.821937  1
  Fe  Fe61  1  0.000000  0.500000  0.500000  1
  Fe  Fe62  1  0.232447  0.541340  0.885536  1
  Fe  Fe63  1  0.500000  0.000000  0.500000  1
  B  B64  1  0.603731  0.396269  0.000000  1
  B  B65  1  0.396269  0.603731  0.000000  1
  B  B66  1  0.896269  0.896269  0.500000  1
  B  B67  1  0.103731  0.103731  0.500000  1
