# generated using pymatgen
data_PrHfO4
_symmetry_space_group_name_H-M   'P 1'
_cell_length_a   10.73774450
_cell_length_b   7.68067313
_cell_length_c   10.85035607
_cell_angle_alpha   45.05881914
_cell_angle_beta   89.98309879
_cell_angle_gamma   89.97712418
_symmetry_Int_Tables_number   1
_chemical_formula_structural   PrHfO4
_chemical_formula_sum   'Pr8 Hf8 O32'
_cell_volume   633.41258905
_cell_formula_units_Z   8
loop_
 _symmetry_equiv_pos_site_id
 _symmetry_equiv_pos_as_xyz
  1  'x, y, z'
loop_
 _atom_site_type_symbol
 _atom_site_label
 _atom_site_symmetry_multiplicity
 _atom_site_fract_x
 _atom_site_fract_y
 _atom_site_fract_z
 _atom_site_occupancy
  Pr  Pr0  1  0.125566  0.245147  0.753665  1
  Pr  Pr1  1  0.123422  0.746367  0.253626  1
  Pr  Pr2  1  0.374982  0.248139  0.502723  1
  Pr  Pr3  1  0.372454  0.751923  0.500349  1
  Pr  Pr4  1  0.625244  0.750180  0.751115  1
  Pr  Pr5  1  0.622320  0.249873  0.249235  1
  Pr  Pr6  1  0.875823  0.746778  0.001754  1
  Pr  Pr7  1  0.873297  0.245117  0.002924  1
  Hf  Hf8  1  0.123895  0.764418  0.746938  1
  Hf  Hf9  1  0.123956  0.238785  0.249700  1
  Hf  Hf10  1  0.373245  0.754887  0.991134  1
  Hf  Hf11  1  0.372592  0.234189  0.012343  1
  Hf  Hf12  1  0.626298  0.233242  0.754978  1
  Hf  Hf13  1  0.624286  0.757234  0.252612  1
  Hf  Hf14  1  0.874066  0.239735  0.513455  1
  Hf  Hf15  1  0.872883  0.760981  0.490079  1
  O  O16  1  0.031502  0.507502  0.997167  1
  O  O17  1  0.001020  0.005037  0.271089  1
  O  O18  1  0.001213  0.558498  0.720822  1
  O  O19  1  0.999495  0.994568  0.004137  1
  O  O20  1  0.992026  0.948076  0.528176  1
  O  O21  1  0.999770  0.007646  0.725999  1
  O  O22  1  0.000001  0.397968  0.301951  1
  O  O23  1  0.250099  0.499010  0.800429  1
  O  O24  1  0.249681  0.955867  0.767287  1
  O  O25  1  0.245305  0.499630  0.024028  1
  O  O26  1  0.213789  0.995440  0.497641  1
  O  O27  1  0.250607  0.495674  0.222725  1
  O  O28  1  0.249490  0.498353  0.503457  1
  O  O29  1  0.280483  0.997807  0.996608  1
  O  O30  1  0.250672  0.041893  0.225432  1
  O  O31  1  0.463586  0.486104  0.008646  1
  O  O32  1  0.499210  0.001476  0.500113  1
  O  O33  1  0.498627  0.056873  0.972041  1
  O  O34  1  0.500427  0.988198  0.233252  1
  O  O35  1  0.500250  0.600358  0.199545  1
  O  O36  1  0.500375  0.442468  0.779266  1
  O  O37  1  0.499499  0.987185  0.780483  1
  O  O38  1  0.532061  0.486121  0.506433  1
  O  O39  1  0.750809  0.495805  0.704896  1
  O  O40  1  0.749931  0.039946  0.735460  1
  O  O41  1  0.744238  0.497280  0.479359  1
  O  O42  1  0.717293  0.997260  0.006596  1
  O  O43  1  0.750232  0.495698  0.283641  1
  O  O44  1  0.749201  0.497722  0.000808  1
  O  O45  1  0.779659  0.996236  0.507733  1
  O  O46  1  0.750506  0.955123  0.277239  1
  O  O47  1  0.963408  0.507667  0.495460  1
