# generated using pymatgen
data_Pr2Mo2C3
_symmetry_space_group_name_H-M   'P 1'
_cell_length_a   6.02829523
_cell_length_b   6.70870162
_cell_length_c   11.30236464
_cell_angle_alpha   90.00000000
_cell_angle_beta   97.51270289
_cell_angle_gamma   90.00000000
_symmetry_Int_Tables_number   1
_chemical_formula_structural   Pr2Mo2C3
_chemical_formula_sum   'Pr8 Mo8 C12'
_cell_volume   453.16690283
_cell_formula_units_Z   4
loop_
 _symmetry_equiv_pos_site_id
 _symmetry_equiv_pos_as_xyz
  1  'x, y, z'
loop_
 _atom_site_type_symbol
 _atom_site_label
 _atom_site_symmetry_multiplicity
 _atom_site_fract_x
 _atom_site_fract_y
 _atom_site_fract_z
 _atom_site_occupancy
  C  C0  1  0.856935  0.628531  0.359667  1
  C  C1  1  0.643065  0.128531  0.140333  1
  C  C2  1  0.143065  0.371469  0.640333  1
  C  C3  1  0.356935  0.871469  0.859667  1
  C  C4  1  0.067828  0.218345  0.010615  1
  C  C5  1  0.432172  0.718345  0.489385  1
  C  C6  1  0.932172  0.781655  0.989385  1
  C  C7  1  0.567828  0.281655  0.510615  1
  C  C8  1  0.719260  0.486047  0.751955  1
  C  C9  1  0.219260  0.013953  0.251955  1
  C  C10  1  0.780740  0.986047  0.748045  1
  C  C11  1  0.280740  0.513953  0.248045  1
  Mo  Mo12  1  0.061522  0.994803  0.880546  1
  Mo  Mo13  1  0.438478  0.494803  0.619454  1
  Mo  Mo14  1  0.938478  0.005197  0.119454  1
  Mo  Mo15  1  0.561522  0.505197  0.380546  1
  Mo  Mo16  1  0.165739  0.756136  0.343002  1
  Mo  Mo17  1  0.834261  0.243864  0.656998  1
  Mo  Mo18  1  0.665739  0.743864  0.843002  1
  Mo  Mo19  1  0.334261  0.256136  0.156998  1
  Pr  Pr20  1  0.402552  0.783907  0.090617  1
  Pr  Pr21  1  0.097448  0.283907  0.409383  1
  Pr  Pr22  1  0.597448  0.216093  0.909383  1
  Pr  Pr23  1  0.902552  0.716093  0.590617  1
  Pr  Pr24  1  0.633438  0.998883  0.362682  1
  Pr  Pr25  1  0.866562  0.498883  0.137318  1
  Pr  Pr26  1  0.366562  0.001117  0.637318  1
  Pr  Pr27  1  0.133438  0.501117  0.862682  1
