# generated using pymatgen
data_Co21Cu3O32
_symmetry_space_group_name_H-M   'P 1'
_cell_length_a   5.76117919
_cell_length_b   5.76117919
_cell_length_c   19.08696434
_cell_angle_alpha   98.68019774
_cell_angle_beta   90.00000000
_cell_angle_gamma   120.00000000
_symmetry_Int_Tables_number   1
_chemical_formula_structural   Co21Cu3O32
_chemical_formula_sum   'Co21 Cu3 O32'
_cell_volume   540.24847711
_cell_formula_units_Z   1
loop_
 _symmetry_equiv_pos_site_id
 _symmetry_equiv_pos_as_xyz
  1  'x, y, z'
loop_
 _atom_site_type_symbol
 _atom_site_label
 _atom_site_symmetry_multiplicity
 _atom_site_fract_x
 _atom_site_fract_y
 _atom_site_fract_z
 _atom_site_occupancy
  Co  Co0  1  0.218855  0.937609  0.156464  1
  Co  Co1  1  0.343749  0.687497  0.031246  1
  Co  Co2  1  0.718754  0.937609  0.156464  1
  Co  Co3  1  0.218855  0.437710  0.156464  1
  Co  Co4  1  0.437788  0.875577  0.313365  1
  Co  Co5  1  0.093771  0.187543  0.281314  1
  Co  Co6  1  0.749681  0.499362  0.249043  1
  Co  Co7  1  0.968601  0.937204  0.406074  1
  Co  Co8  1  0.468870  0.437472  0.406074  1
  Co  Co9  1  0.218611  0.937435  0.656259  1
  Co  Co10  1  0.187350  0.374702  0.562052  1
  Co  Co11  1  0.843706  0.687411  0.531117  1
  Co  Co12  1  0.968601  0.437472  0.406074  1
  Co  Co13  1  0.718824  0.937435  0.656259  1
  Co  Co14  1  0.249990  0.499980  0.749970  1
  Co  Co15  1  0.468813  0.937625  0.906189  1
  Co  Co16  1  0.718824  0.437648  0.656259  1
  Co  Co17  1  0.937689  0.875378  0.813067  1
  Co  Co18  1  0.468813  0.437376  0.906189  1
  Co  Co19  1  0.593699  0.187396  0.781095  1
  Co  Co20  1  0.968564  0.437376  0.906189  1
  Cu  Cu21  1  0.000245  0.000490  0.000735  1
  Cu  Cu22  1  0.687429  0.374858  0.062287  1
  Cu  Cu23  1  0.500050  0.000099  0.500148  1
  O  O24  1  0.070311  0.583945  0.097578  1
  O  O25  1  0.513634  0.583945  0.097578  1
  O  O26  1  0.403130  0.806259  0.209389  1
  O  O27  1  0.034973  0.069948  0.104921  1
  O  O28  1  0.117302  0.791092  0.464883  1
  O  O29  1  0.923183  0.846367  0.215745  1
  O  O30  1  0.369377  0.292560  0.215745  1
  O  O31  1  0.264380  0.528761  0.346951  1
  O  O32  1  0.513634  0.027267  0.097578  1
  O  O33  1  0.264380  0.082571  0.346951  1
  O  O34  1  0.014629  0.582495  0.597124  1
  O  O35  1  0.152808  0.305616  0.458424  1
  O  O36  1  0.923183  0.292560  0.215745  1
  O  O37  1  0.673790  0.791092  0.464883  1
  O  O38  1  0.784373  0.568744  0.353117  1
  O  O39  1  0.673790  0.347581  0.464883  1
  O  O40  1  0.422882  0.845763  0.715526  1
  O  O41  1  0.818190  0.082571  0.346951  1
  O  O42  1  0.014629  0.029259  0.597124  1
  O  O43  1  0.567866  0.582495  0.597124  1
  O  O44  1  0.902996  0.805992  0.708988  1
  O  O45  1  0.534883  0.069767  0.604650  1
  O  O46  1  0.284513  0.569026  0.853539  1
  O  O47  1  0.422882  0.292645  0.715526  1
  O  O48  1  0.173752  0.791251  0.965003  1
  O  O49  1  0.869763  0.292645  0.715526  1
  O  O50  1  0.617499  0.791251  0.965003  1
  O  O51  1  0.173752  0.347504  0.965003  1
  O  O52  1  0.764320  0.528642  0.846770  1
  O  O53  1  0.318129  0.082449  0.846770  1
  O  O54  1  0.652612  0.305223  0.957835  1
  O  O55  1  0.764320  0.082449  0.846770  1
