# generated using pymatgen
data_Pr2W2O9
_symmetry_space_group_name_H-M   'P 1'
_cell_length_a   7.81906916
_cell_length_b   9.40062480
_cell_length_c   10.06510575
_cell_angle_alpha   90.00000000
_cell_angle_beta   90.00000000
_cell_angle_gamma   107.61220652
_symmetry_Int_Tables_number   1
_chemical_formula_structural   Pr2W2O9
_chemical_formula_sum   'Pr8 W8 O36'
_cell_volume   705.14841896
_cell_formula_units_Z   4
loop_
 _symmetry_equiv_pos_site_id
 _symmetry_equiv_pos_as_xyz
  1  'x, y, z'
loop_
 _atom_site_type_symbol
 _atom_site_label
 _atom_site_symmetry_multiplicity
 _atom_site_fract_x
 _atom_site_fract_y
 _atom_site_fract_z
 _atom_site_occupancy
  O  O0  1  0.100281  0.162432  0.781705  1
  O  O1  1  0.899719  0.337568  0.281705  1
  O  O2  1  0.899719  0.837568  0.218295  1
  O  O3  1  0.100281  0.662432  0.718295  1
  O  O4  1  0.054731  0.345537  0.592579  1
  O  O5  1  0.945269  0.154463  0.092579  1
  O  O6  1  0.945269  0.654463  0.407421  1
  O  O7  1  0.054731  0.845537  0.907421  1
  O  O8  1  0.005988  0.402429  0.880419  1
  O  O9  1  0.994012  0.097571  0.380419  1
  O  O10  1  0.994012  0.597571  0.119581  1
  O  O11  1  0.005988  0.902429  0.619581  1
  O  O12  1  0.774594  0.082249  0.623211  1
  O  O13  1  0.225406  0.417751  0.123211  1
  O  O14  1  0.225406  0.917751  0.376789  1
  O  O15  1  0.774594  0.582249  0.876789  1
  O  O16  1  0.744002  0.860354  0.813852  1
  O  O17  1  0.255998  0.639646  0.313852  1
  O  O18  1  0.255998  0.139646  0.186148  1
  O  O19  1  0.744002  0.360354  0.686148  1
  O  O20  1  0.501488  0.825704  0.599208  1
  O  O21  1  0.498512  0.674296  0.099208  1
  O  O22  1  0.498512  0.174296  0.400792  1
  O  O23  1  0.501488  0.325704  0.900792  1
  O  O24  1  0.411453  0.570192  0.790960  1
  O  O25  1  0.588547  0.929808  0.290960  1
  O  O26  1  0.588547  0.429808  0.209040  1
  O  O27  1  0.411453  0.070192  0.709040  1
  O  O28  1  0.446703  0.391212  0.604408  1
  O  O29  1  0.553297  0.108788  0.104408  1
  O  O30  1  0.553297  0.608788  0.395592  1
  O  O31  1  0.446703  0.891212  0.895592  1
  O  O32  1  0.735459  0.637605  0.634765  1
  O  O33  1  0.264541  0.862395  0.134766  1
  O  O34  1  0.264541  0.362395  0.365235  1
  O  O35  1  0.735459  0.137605  0.865235  1
  Pr  Pr36  1  0.773080  0.348728  0.053924  1
  Pr  Pr37  1  0.226920  0.151272  0.553924  1
  Pr  Pr38  1  0.226920  0.651272  0.946076  1
  Pr  Pr39  1  0.773080  0.848728  0.446076  1
  Pr  Pr40  1  0.714052  0.424432  0.449039  1
  Pr  Pr41  1  0.285948  0.075568  0.949039  1
  Pr  Pr42  1  0.285948  0.575568  0.550961  1
  Pr  Pr43  1  0.714052  0.924432  0.050961  1
  W  W44  1  0.927653  0.261019  0.748537  1
  W  W45  1  0.072347  0.238981  0.248537  1
  W  W46  1  0.072347  0.738981  0.251463  1
  W  W47  1  0.927653  0.761019  0.751463  1
  W  W48  1  0.579435  0.466725  0.768460  1
  W  W49  1  0.420565  0.033275  0.268460  1
  W  W50  1  0.420565  0.533275  0.231540  1
  W  W51  1  0.579435  0.966725  0.731540  1
