# generated using pymatgen
data_ReOs3
_symmetry_space_group_name_H-M   'P 1'
_cell_length_a   5.53710799
_cell_length_b   5.53710815
_cell_length_c   4.36940701
_cell_angle_alpha   90.00000000
_cell_angle_beta   90.00000000
_cell_angle_gamma   119.99999908
_symmetry_Int_Tables_number   1
_chemical_formula_structural   ReOs3
_chemical_formula_sum   'Re2 Os6'
_cell_volume   116.01633371
_cell_formula_units_Z   2
loop_
 _symmetry_equiv_pos_site_id
 _symmetry_equiv_pos_as_xyz
  1  'x, y, z'
loop_
 _atom_site_type_symbol
 _atom_site_label
 _atom_site_symmetry_multiplicity
 _atom_site_fract_x
 _atom_site_fract_y
 _atom_site_fract_z
 _atom_site_occupancy
  Re  Re0  1  0.333333  0.666667  0.750001  1
  Re  Re1  1  0.666667  0.333333  0.250001  1
  Os  Os2  1  0.167302  0.334603  0.250001  1
  Os  Os3  1  0.665394  0.832696  0.250001  1
  Os  Os4  1  0.167302  0.832696  0.250001  1
  Os  Os5  1  0.832696  0.665395  0.750001  1
  Os  Os6  1  0.334603  0.167302  0.750001  1
  Os  Os7  1  0.832698  0.167302  0.750001  1
