# generated using pymatgen
data_ReRh3
_symmetry_space_group_name_H-M   'P 1'
_cell_length_a   5.51199974
_cell_length_b   5.51187762
_cell_length_c   4.36631634
_cell_angle_alpha   89.98860977
_cell_angle_beta   90.01286263
_cell_angle_gamma   120.00335172
_symmetry_Int_Tables_number   1
_chemical_formula_structural   ReRh3
_chemical_formula_sum   'Re2 Rh6'
_cell_volume   114.87880292
_cell_formula_units_Z   2
loop_
 _symmetry_equiv_pos_site_id
 _symmetry_equiv_pos_as_xyz
  1  'x, y, z'
loop_
 _atom_site_type_symbol
 _atom_site_label
 _atom_site_symmetry_multiplicity
 _atom_site_fract_x
 _atom_site_fract_y
 _atom_site_fract_z
 _atom_site_occupancy
  Re  Re0  1  0.333313  0.666712  0.749998  1
  Re  Re1  1  0.666679  0.333322  0.250004  1
  Rh  Rh2  1  0.169000  0.337995  0.250007  1
  Rh  Rh3  1  0.662006  0.830997  0.250012  1
  Rh  Rh4  1  0.169014  0.830984  0.249990  1
  Rh  Rh5  1  0.831006  0.661973  0.749995  1
  Rh  Rh6  1  0.338023  0.168991  0.749987  1
  Rh  Rh7  1  0.830960  0.169029  0.750010  1
