# generated using pymatgen
data_ReTc3
_symmetry_space_group_name_H-M   'P 1'
_cell_length_a   5.52767159
_cell_length_b   5.52767194
_cell_length_c   4.44087414
_cell_angle_alpha   90.00000000
_cell_angle_beta   90.00000000
_cell_angle_gamma   120.00000397
_symmetry_Int_Tables_number   1
_chemical_formula_structural   ReTc3
_chemical_formula_sum   'Re2 Tc6'
_cell_volume   117.51236646
_cell_formula_units_Z   2
loop_
 _symmetry_equiv_pos_site_id
 _symmetry_equiv_pos_as_xyz
  1  'x, y, z'
loop_
 _atom_site_type_symbol
 _atom_site_label
 _atom_site_symmetry_multiplicity
 _atom_site_fract_x
 _atom_site_fract_y
 _atom_site_fract_z
 _atom_site_occupancy
  Re  Re0  1  0.333335  0.666669  0.750000  1
  Re  Re1  1  0.666666  0.333332  0.249998  1
  Tc  Tc2  1  0.167417  0.334833  0.249998  1
  Tc  Tc3  1  0.665166  0.832584  0.249998  1
  Tc  Tc4  1  0.167418  0.832584  0.249998  1
  Tc  Tc5  1  0.832583  0.665166  0.750000  1
  Tc  Tc6  1  0.334832  0.167416  0.750000  1
  Tc  Tc7  1  0.832584  0.167416  0.750000  1
