# generated using pymatgen
data_Re2(HgO2)5
_symmetry_space_group_name_H-M   'P 1'
_cell_length_a   6.61356370
_cell_length_b   8.49718069
_cell_length_c   11.84975744
_cell_angle_alpha   90.00000000
_cell_angle_beta   90.00000000
_cell_angle_gamma   99.83911901
_symmetry_Int_Tables_number   1
_chemical_formula_structural   Re2(HgO2)5
_chemical_formula_sum   'Re4 Hg10 O20'
_cell_volume   656.12195791
_cell_formula_units_Z   2
loop_
 _symmetry_equiv_pos_site_id
 _symmetry_equiv_pos_as_xyz
  1  'x, y, z'
loop_
 _atom_site_type_symbol
 _atom_site_label
 _atom_site_symmetry_multiplicity
 _atom_site_fract_x
 _atom_site_fract_y
 _atom_site_fract_z
 _atom_site_occupancy
  Re  Re0  1  0.383973  0.483490  0.342510  1
  Re  Re1  1  0.616027  0.016510  0.842510  1
  Re  Re2  1  0.616027  0.516510  0.657490  1
  Re  Re3  1  0.383973  0.983490  0.157490  1
  Hg  Hg4  1  0.001879  0.312851  0.089068  1
  Hg  Hg5  1  0.125563  0.820611  0.717100  1
  Hg  Hg6  1  0.998121  0.187149  0.589068  1
  Hg  Hg7  1  0.125563  0.320611  0.782900  1
  Hg  Hg8  1  0.874437  0.179389  0.282900  1
  Hg  Hg9  1  0.500000  0.000000  0.500000  1
  Hg  Hg10  1  0.998121  0.687149  0.910932  1
  Hg  Hg11  1  0.874437  0.679389  0.217100  1
  Hg  Hg12  1  0.001879  0.812851  0.410932  1
  Hg  Hg13  1  0.500000  0.500000  0.000000  1
  O  O14  1  0.599899  0.892003  0.176084  1
  O  O15  1  0.194749  0.937478  0.551534  1
  O  O16  1  0.701075  0.467421  0.791776  1
  O  O17  1  0.599899  0.392003  0.323916  1
  O  O18  1  0.548854  0.340269  0.579497  1
  O  O19  1  0.194749  0.437478  0.948466  1
  O  O20  1  0.400101  0.607997  0.676084  1
  O  O21  1  0.817912  0.645197  0.590705  1
  O  O22  1  0.805251  0.562522  0.051534  1
  O  O23  1  0.548854  0.840269  0.920503  1
  O  O24  1  0.701075  0.967421  0.708224  1
  O  O25  1  0.805251  0.062522  0.448466  1
  O  O26  1  0.182088  0.354803  0.409295  1
  O  O27  1  0.451146  0.159731  0.079497  1
  O  O28  1  0.298925  0.032579  0.291776  1
  O  O29  1  0.451146  0.659731  0.420503  1
  O  O30  1  0.400101  0.107997  0.823916  1
  O  O31  1  0.182088  0.854803  0.090705  1
  O  O32  1  0.298925  0.532579  0.208224  1
  O  O33  1  0.817912  0.145197  0.909295  1
