# generated using pymatgen
data_Co25Cu11O48
_symmetry_space_group_name_H-M   'P 1'
_cell_length_a   9.92570129
_cell_length_b   9.95099670
_cell_length_c   9.92431667
_cell_angle_alpha   119.91134301
_cell_angle_beta   109.24183505
_cell_angle_gamma   80.54132145
_symmetry_Int_Tables_number   1
_chemical_formula_structural   Co25Cu11O48
_chemical_formula_sum   'Co25 Cu11 O48'
_cell_volume   802.19670672
_cell_formula_units_Z   1
loop_
 _symmetry_equiv_pos_site_id
 _symmetry_equiv_pos_as_xyz
  1  'x, y, z'
loop_
 _atom_site_type_symbol
 _atom_site_label
 _atom_site_symmetry_multiplicity
 _atom_site_fract_x
 _atom_site_fract_y
 _atom_site_fract_z
 _atom_site_occupancy
  Co  Co0  1  0.937682  0.666667  0.146177  1
  Co  Co1  1  0.751307  0.499877  0.251030  1
  Co  Co2  1  0.750175  0.166713  0.084752  1
  Co  Co3  1  0.751307  0.833456  0.417820  1
  Co  Co4  1  0.749675  0.001025  0.251653  1
  Co  Co5  1  0.499717  0.000617  0.000781  1
  Co  Co6  1  0.500676  0.666667  0.332057  1
  Co  Co7  1  0.249823  0.666667  0.081411  1
  Co  Co8  1  0.749314  0.666667  0.583738  1
  Co  Co9  1  0.748270  0.833525  0.917437  1
  Co  Co10  1  0.750175  0.166621  0.584706  1
  Co  Co11  1  0.250053  0.166170  0.082901  1
  Co  Co12  1  0.748270  0.499809  0.750579  1
  Co  Co13  1  0.251043  0.833948  0.416186  1
  Co  Co14  1  0.251043  0.499385  0.248906  1
  Co  Co15  1  0.000764  0.331906  0.166721  1
  Co  Co16  1  0.499717  0.332716  0.666831  1
  Co  Co17  1  0.250686  0.332077  0.415483  1
  Co  Co18  1  0.749675  0.332308  0.917295  1
  Co  Co19  1  0.248997  0.833045  0.914535  1
  Co  Co20  1  0.248997  0.500288  0.748157  1
  Co  Co21  1  0.250053  0.167163  0.583398  1
  Co  Co22  1  0.250686  0.001256  0.750072  1
  Co  Co23  1  0.000764  0.001428  0.501482  1
  Co  Co24  1  0.998301  0.666667  0.832003  1
  Cu  Cu25  1  0.560423  0.666667  0.020808  1
  Cu  Cu26  1  0.937704  0.334376  0.481279  1
  Cu  Cu27  1  0.562925  0.334598  0.355208  1
  Cu  Cu28  1  0.438272  0.999618  0.311697  1
  Cu  Cu29  1  0.937704  0.998957  0.813569  1
  Cu  Cu30  1  0.435867  0.666667  0.644679  1
  Cu  Cu31  1  0.562925  0.998735  0.687277  1
  Cu  Cu32  1  0.062244  0.999460  0.186990  1
  Cu  Cu33  1  0.065205  0.666667  0.519489  1
  Cu  Cu34  1  0.438272  0.333715  0.978745  1
  Cu  Cu35  1  0.062244  0.333873  0.854197  1
  O  O36  1  0.630126  0.853473  0.046645  1
  O  O37  1  0.869297  0.853575  0.309214  1
  O  O38  1  0.869297  0.479758  0.122306  1
  O  O39  1  0.646615  0.333591  0.050861  1
  O  O40  1  0.868691  0.333389  0.272012  1
  O  O41  1  0.853601  0.999883  0.118383  1
  O  O42  1  0.634545  0.666667  0.229119  1
  O  O43  1  0.855704  0.666667  0.452482  1
  O  O44  1  0.632319  0.813783  0.525031  1
  O  O45  1  0.631253  0.147963  0.193182  1
  O  O46  1  0.130538  0.814338  0.023091  1
  O  O47  1  0.632319  0.519550  0.377914  1
  O  O48  1  0.868486  0.148362  0.457190  1
  O  O49  1  0.866117  0.814685  0.789877  1
  O  O50  1  0.368229  0.519396  0.139434  1
  O  O51  1  0.368229  0.813938  0.286705  1
  O  O52  1  0.866117  0.518648  0.641858  1
  O  O53  1  0.866275  0.666667  0.937331  1
  O  O54  1  0.868691  -0.000055  0.605290  1
  O  O55  1  0.366530  0.998907  0.102851  1
  O  O56  1  0.646615  0.999742  0.383938  1
  O  O57  1  0.367434  0.666667  0.436080  1
  O  O58  1  0.644293  0.666667  0.716898  1
  O  O59  1  0.146854  0.666667  0.215182  1
  O  O60  1  0.133019  0.332112  0.061901  1
  O  O61  1  0.354412  0.332358  0.282988  1
  O  O62  1  0.632183  0.332752  0.563325  1
  O  O63  1  0.853601  0.333451  0.785167  1
  O  O64  1  0.132312  0.184470  0.210760  1
  O  O65  1  0.631253  0.185370  0.711885  1
  O  O66  1  0.133132  0.480003  0.358128  1
  O  O67  1  0.630126  0.479860  0.859838  1
  O  O68  1  0.133132  0.853330  0.544792  1
  O  O69  1  0.368587  0.479910  0.620644  1
  O  O70  1  0.368587  0.853424  0.807401  1
  O  O71  1  0.368666  0.184882  0.474248  1
  O  O72  1  0.868486  0.184972  0.975496  1
  O  O73  1  0.366530  0.334427  0.770611  1
  O  O74  1  0.146077  0.332957  0.547835  1
  O  O75  1  0.632183  0.000582  0.897240  1
  O  O76  1  0.133019  0.001221  0.396457  1
  O  O77  1  0.354412  0.000975  0.617296  1
  O  O78  1  0.130922  0.666667  0.727252  1
  O  O79  1  0.352638  0.666667  0.947862  1
  O  O80  1  0.132312  0.148863  0.692957  1
  O  O81  1  0.130538  0.518996  0.875421  1
  O  O82  1  0.368666  0.148451  0.956032  1
  O  O83  1  0.146077  0.000376  0.881546  1
