# generated using pymatgen
data_ReHgO4
_symmetry_space_group_name_H-M   'P 1'
_cell_length_a   5.20278675
_cell_length_b   5.82510400
_cell_length_c   14.63964400
_cell_angle_alpha   91.60862382
_cell_angle_beta   90.00000000
_cell_angle_gamma   90.00000000
_symmetry_Int_Tables_number   1
_chemical_formula_structural   ReHgO4
_chemical_formula_sum   'Re4 Hg4 O16'
_cell_volume   443.50552682
_cell_formula_units_Z   4
loop_
 _symmetry_equiv_pos_site_id
 _symmetry_equiv_pos_as_xyz
  1  'x, y, z'
loop_
 _atom_site_type_symbol
 _atom_site_label
 _atom_site_symmetry_multiplicity
 _atom_site_fract_x
 _atom_site_fract_y
 _atom_site_fract_z
 _atom_site_occupancy
  Re  Re0  1  0.857811  0.985194  0.844047  1
  Re  Re1  1  0.142189  0.014806  0.155953  1
  Re  Re2  1  0.357811  0.514806  0.655953  1
  Re  Re3  1  0.642189  0.485194  0.344047  1
  Hg  Hg4  1  0.172665  0.042959  0.437954  1
  Hg  Hg5  1  0.327335  0.542959  0.937954  1
  Hg  Hg6  1  0.672665  0.457041  0.062046  1
  Hg  Hg7  1  0.827335  0.957041  0.562046  1
  O  O8  1  0.983498  0.710271  0.869106  1
  O  O9  1  0.016502  0.289729  0.130894  1
  O  O10  1  0.426380  0.451220  0.769741  1
  O  O11  1  0.483498  0.789729  0.630894  1
  O  O12  1  0.986726  0.199051  0.917083  1
  O  O13  1  0.973947  0.472560  0.361475  1
  O  O14  1  0.513274  0.699051  0.417083  1
  O  O15  1  0.926380  0.048780  0.730259  1
  O  O16  1  0.516502  0.210271  0.369106  1
  O  O17  1  0.526053  0.972560  0.861475  1
  O  O18  1  0.026053  0.527440  0.638525  1
  O  O19  1  0.573620  0.548780  0.230259  1
  O  O20  1  0.473947  0.027440  0.138525  1
  O  O21  1  0.073620  0.951220  0.269741  1
  O  O22  1  0.486726  0.300949  0.582917  1
  O  O23  1  0.013274  0.800949  0.082917  1
