# generated using pymatgen
data_CuReO4
_symmetry_space_group_name_H-M   'P 1'
_cell_length_a   9.74705779
_cell_length_b   6.63285120
_cell_length_c   7.85954226
_cell_angle_alpha   94.04548963
_cell_angle_beta   101.49398084
_cell_angle_gamma   104.66059869
_symmetry_Int_Tables_number   1
_chemical_formula_structural   CuReO4
_chemical_formula_sum   'Cu6 Re6 O24'
_cell_volume   477.78520200
_cell_formula_units_Z   6
loop_
 _symmetry_equiv_pos_site_id
 _symmetry_equiv_pos_as_xyz
  1  'x, y, z'
loop_
 _atom_site_type_symbol
 _atom_site_label
 _atom_site_symmetry_multiplicity
 _atom_site_fract_x
 _atom_site_fract_y
 _atom_site_fract_z
 _atom_site_occupancy
  Cu  Cu0  1  0.984708  0.116638  0.210686  1
  Cu  Cu1  1  0.325395  0.461298  0.542150  1
  Cu  Cu2  1  0.440223  0.739121  0.212725  1
  Cu  Cu3  1  0.559777  0.260879  0.787275  1
  Cu  Cu4  1  0.674605  0.538702  0.457850  1
  Cu  Cu5  1  0.015292  0.883362  0.789314  1
  Re  Re6  1  0.103771  0.403581  0.879776  1
  Re  Re7  1  0.235768  0.949444  0.452032  1
  Re  Re8  1  0.341717  0.227449  0.133547  1
  Re  Re9  1  0.658283  0.772551  0.866453  1
  Re  Re10  1  0.764232  0.050556  0.547968  1
  Re  Re11  1  0.896229  0.596419  0.120224  1
  O  O12  1  0.037782  0.636225  0.900752  1
  O  O13  1  0.115369  0.905877  0.594253  1
  O  O14  1  0.059780  0.789779  0.243022  1
  O  O15  1  0.151451  0.134601  0.962861  1
  O  O16  1  0.199228  0.453227  0.713493  1
  O  O17  1  0.199966  0.192862  0.331287  1
  O  O18  1  0.292987  0.713339  0.444232  1
  O  O19  1  0.346790  0.978270  0.217930  1
  O  O20  1  0.268082  0.490613  0.078154  1
  O  O21  1  0.447754  0.218321  0.977071  1
  O  O22  1  0.391716  0.129879  0.591252  1
  O  O23  1  0.528764  0.576770  0.698244  1
  O  O24  1  0.471236  0.423230  0.301756  1
  O  O25  1  0.608284  0.870121  0.408748  1
  O  O26  1  0.552246  0.781679  0.022929  1
  O  O27  1  0.731918  0.509387  0.921846  1
  O  O28  1  0.653210  0.021730  0.782070  1
  O  O29  1  0.707013  0.286661  0.555768  1
  O  O30  1  0.800034  0.807138  0.668713  1
  O  O31  1  0.800772  0.546773  0.286507  1
  O  O32  1  0.848549  0.865399  0.037139  1
  O  O33  1  0.940220  0.210221  0.756978  1
  O  O34  1  0.884631  0.094123  0.405747  1
  O  O35  1  0.962218  0.363775  0.099248  1
