# generated using pymatgen
data_CuReO4
_symmetry_space_group_name_H-M   'P 1'
_cell_length_a   10.14818057
_cell_length_b   7.02607974
_cell_length_c   8.61424976
_cell_angle_alpha   101.68001214
_cell_angle_beta   97.28525734
_cell_angle_gamma   106.51132518
_symmetry_Int_Tables_number   1
_chemical_formula_structural   CuReO4
_chemical_formula_sum   'Cu6 Re6 O24'
_cell_volume   565.46618301
_cell_formula_units_Z   6
loop_
 _symmetry_equiv_pos_site_id
 _symmetry_equiv_pos_as_xyz
  1  'x, y, z'
loop_
 _atom_site_type_symbol
 _atom_site_label
 _atom_site_symmetry_multiplicity
 _atom_site_fract_x
 _atom_site_fract_y
 _atom_site_fract_z
 _atom_site_occupancy
  Cu  Cu0  1  0.018944  0.958306  0.795970  1
  Cu  Cu1  1  0.232513  0.465952  0.388223  1
  Cu  Cu2  1  0.411606  0.750016  0.195086  1
  Cu  Cu3  1  0.588394  0.249984  0.804914  1
  Cu  Cu4  1  0.767487  0.534048  0.611777  1
  Cu  Cu5  1  0.981056  0.041694  0.204030  1
  Re  Re6  1  0.107626  0.498862  0.777218  1
  Re  Re7  1  0.253023  0.996143  0.469688  1
  Re  Re8  1  0.345555  0.200039  0.087691  1
  Re  Re9  1  0.654445  0.799961  0.912309  1
  Re  Re10  1  0.746977  0.003857  0.530312  1
  Re  Re11  1  0.892374  0.501138  0.222782  1
  O  O12  1  0.011215  0.243731  0.770267  1
  O  O13  1  0.141384  0.937914  0.605797  1
  O  O14  1  0.009698  0.354802  0.216072  1
  O  O15  1  0.182529  0.502924  0.602095  1
  O  O16  1  0.239301  0.595185  0.951510  1
  O  O17  1  0.168061  0.068032  0.992690  1
  O  O18  1  0.273168  0.762837  0.361509  1
  O  O19  1  0.185487  0.139427  0.346100  1
  O  O20  1  0.362890  0.441036  0.222026  1
  O  O21  1  0.442801  0.250425  0.936754  1
  O  O22  1  0.586979  0.955560  0.808895  1
  O  O23  1  0.416845  0.155715  0.581376  1
  O  O24  1  0.583155  0.844285  0.418624  1
  O  O25  1  0.413021  0.044440  0.191105  1
  O  O26  1  0.557199  0.749575  0.063246  1
  O  O27  1  0.637110  0.558964  0.777974  1
  O  O28  1  0.814513  0.860573  0.653900  1
  O  O29  1  0.726832  0.237163  0.638491  1
  O  O30  1  0.831939  0.931968  0.007310  1
  O  O31  1  0.760699  0.404815  0.048490  1
  O  O32  1  0.817471  0.497076  0.397905  1
  O  O33  1  0.990302  0.645198  0.783928  1
  O  O34  1  0.858616  0.062086  0.394203  1
  O  O35  1  0.988785  0.756269  0.229733  1
