# generated using pymatgen
data_Co5RuO8
_symmetry_space_group_name_H-M   'P 1'
_cell_length_a   6.05661139
_cell_length_b   5.97311469
_cell_length_c   29.87694314
_cell_angle_alpha   60.00842886
_cell_angle_beta   60.40404974
_cell_angle_gamma   60.23618732
_symmetry_Int_Tables_number   1
_chemical_formula_structural   Co5RuO8
_chemical_formula_sum   'Co25 Ru5 O40'
_cell_volume   768.00190376
_cell_formula_units_Z   5
loop_
 _symmetry_equiv_pos_site_id
 _symmetry_equiv_pos_as_xyz
  1  'x, y, z'
loop_
 _atom_site_type_symbol
 _atom_site_label
 _atom_site_symmetry_multiplicity
 _atom_site_fract_x
 _atom_site_fract_y
 _atom_site_fract_z
 _atom_site_occupancy
  Co  Co0  1  0.126360  0.107290  0.026330  1
  Co  Co1  1  0.000000  0.500000  0.100000  1
  Co  Co2  1  0.499803  0.494925  0.001062  1
  Co  Co3  1  0.103844  0.128013  0.227041  1
  Co  Co4  1  0.500000  0.500000  0.100000  1
  Co  Co5  1  0.500197  0.505075  0.198938  1
  Co  Co6  1  0.101616  0.133669  0.426417  1
  Co  Co7  1  0.505355  0.496095  0.299705  1
  Co  Co8  1  0.873640  0.892710  0.173670  1
  Co  Co9  1  0.504149  0.498762  0.399711  1
  Co  Co10  1  0.096889  0.134606  0.626877  1
  Co  Co11  1  0.504803  -0.000687  0.299396  1
  Co  Co12  1  0.502530  0.500001  0.499560  1
  Co  Co13  1  0.907351  0.863031  0.372777  1
  Co  Co14  1  0.502732  -0.001120  0.499745  1
  Co  Co15  1  0.092649  0.136969  0.827223  1
  Co  Co16  1  0.500000  0.500000  0.600000  1
  Co  Co17  1  0.497470  0.499999  0.700440  1
  Co  Co18  1  0.495198  1.000687  0.900604  1
  Co  Co19  1  0.497268  1.001120  0.700255  1
  Co  Co20  1  0.903111  0.865394  0.573123  1
  Co  Co21  1  0.495851  0.501238  0.800289  1
  Co  Co22  1  0.494644  0.503905  0.900295  1
  Co  Co23  1  0.898384  0.866331  0.773583  1
  Co  Co24  1  0.896156  0.871987  0.972959  1
  O  O25  1  0.264582  0.237433  0.053054  1
  O  O26  1  0.265009  0.237731  0.146398  1
  O  O27  1  0.263211  0.709542  0.053677  1
  O  O28  1  0.727553  0.240431  0.053025  1
  O  O29  1  0.272447  0.759569  0.146975  1
  O  O30  1  0.239344  0.267093  0.252597  1
  O  O31  1  0.736789  0.290458  0.146323  1
  O  O32  1  0.734991  0.762269  0.053602  1
  O  O33  1  0.241511  0.262952  0.345651  1
  O  O34  1  0.243431  0.723786  0.253489  1
  O  O35  1  0.709767  0.259994  0.253756  1
  O  O36  1  0.735418  0.762567  0.146946  1
  O  O37  1  0.301756  0.731798  0.346298  1
  O  O38  1  0.241051  0.268687  0.452213  1
  O  O39  1  0.762700  0.732743  0.254447  1
  O  O40  1  0.766599  0.267321  0.345729  1
  O  O41  1  0.239263  0.264858  0.546001  1
  O  O42  1  0.239090  0.729767  0.453202  1
  O  O43  1  0.768067  0.726629  0.347149  1
  O  O44  1  0.708442  0.264339  0.452568  1
  O  O45  1  0.296698  0.733450  0.547026  1
  O  O46  1  0.235031  0.269385  0.653012  1
  O  O47  1  0.766381  0.269812  0.546226  1
  O  O48  1  0.766781  0.733153  0.453551  1
  O  O49  1  0.233219  0.266847  0.746449  1
  O  O50  1  0.233619  0.730188  0.653774  1
  O  O51  1  0.764969  0.730615  0.546988  1
  O  O52  1  0.703302  0.266550  0.652974  1
  O  O53  1  0.231933  0.273371  0.852851  1
  O  O54  1  0.291558  0.735661  0.747432  1
  O  O55  1  0.760737  0.735142  0.653999  1
  O  O56  1  0.760910  0.270233  0.746798  1
  O  O57  1  0.237300  0.267257  0.945553  1
  O  O58  1  0.233401  0.732679  0.854271  1
  O  O59  1  0.698244  0.268202  0.853702  1
  O  O60  1  0.758949  0.731313  0.747787  1
  O  O61  1  0.290233  0.740006  0.946244  1
  O  O62  1  0.756569  0.276214  0.946511  1
  O  O63  1  0.758489  0.737048  0.854349  1
  O  O64  1  0.760656  0.732907  0.947403  1
  Ru  Ru65  1  0.500000  0.000000  0.100000  1
  Ru  Ru66  1  0.002979  0.499040  0.499851  1
  Ru  Ru67  1  1.003224  0.495901  0.299996  1
  Ru  Ru68  1  -0.003224  0.504099  0.900004  1
  Ru  Ru69  1  0.997021  0.500960  0.700149  1
