# generated using pymatgen
data_CuReO4
_symmetry_space_group_name_H-M   'P 1'
_cell_length_a   7.80441562
_cell_length_b   10.55301327
_cell_length_c   10.55217136
_cell_angle_alpha   82.20430937
_cell_angle_beta   68.26383218
_cell_angle_gamma   68.35273136
_symmetry_Int_Tables_number   1
_chemical_formula_structural   CuReO4
_chemical_formula_sum   'Cu8 Re8 O32'
_cell_volume   750.34924892
_cell_formula_units_Z   8
loop_
 _symmetry_equiv_pos_site_id
 _symmetry_equiv_pos_as_xyz
  1  'x, y, z'
loop_
 _atom_site_type_symbol
 _atom_site_label
 _atom_site_symmetry_multiplicity
 _atom_site_fract_x
 _atom_site_fract_y
 _atom_site_fract_z
 _atom_site_occupancy
  Cu  Cu0  1  0.683771  0.720712  0.043843  1
  Cu  Cu1  1  0.475225  0.222582  0.456003  1
  Cu  Cu2  1  0.949038  0.956025  0.279050  1
  Cu  Cu3  1  0.156293  0.777500  0.547807  1
  Cu  Cu4  1  0.448635  0.278900  0.954139  1
  Cu  Cu5  1  0.181824  0.050311  0.723037  1
  Cu  Cu6  1  0.653777  0.545807  0.777101  1
  Cu  Cu7  1  0.978465  0.452251  0.224306  1
  Re  Re8  1  0.351046  0.546373  0.259348  1
  Re  Re9  1  0.850195  0.257037  0.546251  1
  Re  Re10  1  0.360484  0.046323  0.240423  1
  Re  Re11  1  0.857440  0.242071  0.046917  1
  Re  Re12  1  0.647656  0.954482  0.758175  1
  Re  Re13  1  0.655422  0.742251  0.454358  1
  Re  Re14  1  0.147055  0.758066  0.954782  1
  Re  Re15  1  0.153169  0.454730  0.742964  1
  O  O16  1  0.204748  0.603710  0.673566  1
  O  O17  1  0.109589  0.889074  0.834196  1
  O  O18  1  0.639570  0.316340  0.006263  1
  O  O19  1  0.964117  0.682172  0.995440  1
  O  O20  1  0.894264  0.496035  0.818814  1
  O  O21  1  0.267885  0.384242  0.865045  1
  O  O22  1  0.206321  0.505984  0.185662  1
  O  O23  1  0.193299  0.665786  0.391777  1
  O  O24  1  0.244108  0.335634  0.610483  1
  O  O25  1  0.481310  0.396711  0.328161  1
  O  O26  1  0.141142  0.007235  0.315062  1
  O  O27  1  0.462873  0.996625  0.683971  1
  O  O28  1  0.517076  0.616554  0.136051  1
  O  O29  1  0.125623  0.828906  0.104127  1
  O  O30  1  0.692253  0.390163  0.665032  1
  O  O31  1  0.057449  0.173443  0.897022  1
  O  O32  1  0.630798  0.103715  0.826651  1
  O  O33  1  0.980898  0.325562  0.396223  1
  O  O34  1  0.770995  0.863831  0.382928  1
  O  O35  1  0.830739  0.109732  0.165929  1
  O  O36  1  0.397011  0.818632  0.494287  1
  O  O37  1  0.883847  0.882790  0.635299  1
  O  O38  1  0.900319  0.364782  0.117877  1
  O  O39  1  0.706710  0.182075  0.505847  1
  O  O40  1  0.334438  0.165625  0.108232  1
  O  O41  1  0.747172  0.609131  0.336076  1
  O  O42  1  0.015772  0.134402  0.616905  1
  O  O43  1  0.558754  0.896389  0.171102  1
  O  O44  1  0.404311  0.116177  0.363400  1
  O  O45  1  0.383960  0.635069  0.886686  1
  O  O46  1  0.606741  0.835873  0.890843  1
  O  O47  1  0.703480  0.674016  0.604754  1
