# generated using pymatgen
data_RuAu3
_symmetry_space_group_name_H-M   'P 1'
_cell_length_a   5.84456049
_cell_length_b   5.84456008
_cell_length_c   4.70478636
_cell_angle_alpha   90.00000000
_cell_angle_beta   90.00000000
_cell_angle_gamma   119.99999617
_symmetry_Int_Tables_number   1
_chemical_formula_structural   RuAu3
_chemical_formula_sum   'Ru2 Au6'
_cell_volume   139.17916964
_cell_formula_units_Z   2
loop_
 _symmetry_equiv_pos_site_id
 _symmetry_equiv_pos_as_xyz
  1  'x, y, z'
loop_
 _atom_site_type_symbol
 _atom_site_label
 _atom_site_symmetry_multiplicity
 _atom_site_fract_x
 _atom_site_fract_y
 _atom_site_fract_z
 _atom_site_occupancy
  Ru  Ru0  1  0.333334  0.666668  0.750001  1
  Ru  Ru1  1  0.666667  0.333335  0.250001  1
  Au  Au2  1  0.169034  0.338070  0.250001  1
  Au  Au3  1  0.661932  0.830967  0.250001  1
  Au  Au4  1  0.169034  0.830967  0.250001  1
  Au  Au5  1  0.830966  0.661933  0.750001  1
  Au  Au6  1  0.338067  0.169033  0.750001  1
  Au  Au7  1  0.830966  0.169033  0.750001  1
