# generated using pymatgen
data_Sc11Nb3O24
_symmetry_space_group_name_H-M   'P 1'
_cell_length_a   12.27208716
_cell_length_b   7.94544434
_cell_length_c   7.98355548
_cell_angle_alpha   71.96527393
_cell_angle_beta   49.66114642
_cell_angle_gamma   49.58482512
_symmetry_Int_Tables_number   1
_chemical_formula_structural   Sc11Nb3O24
_chemical_formula_sum   'Sc11 Nb3 O24'
_cell_volume   443.56493211
_cell_formula_units_Z   1
loop_
 _symmetry_equiv_pos_site_id
 _symmetry_equiv_pos_as_xyz
  1  'x, y, z'
loop_
 _atom_site_type_symbol
 _atom_site_label
 _atom_site_symmetry_multiplicity
 _atom_site_fract_x
 _atom_site_fract_y
 _atom_site_fract_z
 _atom_site_occupancy
  Sc  Sc0  1  0.072740  0.321046  0.146426  1
  Sc  Sc1  1  0.104034  0.609046  0.327529  1
  Sc  Sc2  1  0.280963  0.138447  0.616553  1
  Sc  Sc3  1  0.210242  0.859461  0.392952  1
  Sc  Sc4  1  0.573925  0.321339  0.134023  1
  Sc  Sc5  1  0.607356  0.610908  0.324265  1
  Sc  Sc6  1  0.426651  0.678996  0.859695  1
  Sc  Sc7  1  0.789536  0.139252  0.609235  1
  Sc  Sc8  1  0.719947  0.852255  0.384244  1
  Sc  Sc9  1  0.897055  0.389054  0.674665  1
  Sc  Sc10  1  0.921121  0.684470  0.857981  1
  Nb  Nb11  1  0.993386  0.007426  0.003334  1
  Nb  Nb12  1  0.495506  0.998792  0.012564  1
  Nb  Nb13  1  0.397743  0.386285  0.675359  1
  O  O14  1  0.087956  0.046641  0.685097  1
  O  O15  1  0.274007  0.316448  0.087586  1
  O  O16  1  0.088477  0.419439  0.587122  1
  O  O17  1  0.135162  0.093733  0.950925  1
  O  O18  1  0.007506  0.821996  0.580664  1
  O  O19  1  0.329906  0.583571  0.179042  1
  O  O20  1  0.177666  0.421281  0.819487  1
  O  O21  1  0.489358  0.185660  0.426023  1
  O  O22  1  0.367304  0.905540  0.046621  1
  O  O23  1  0.407440  0.573791  0.434139  1
  O  O24  1  0.234738  0.675906  0.889733  1
  O  O25  1  0.575009  0.069755  0.682867  1
  O  O26  1  0.413368  0.951955  0.316432  1
  O  O27  1  0.768275  0.316717  0.097234  1
  O  O28  1  0.585270  0.415896  0.584791  1
  O  O29  1  0.635880  0.091027  0.949946  1
  O  O30  1  0.510232  0.818278  0.576838  1
  O  O31  1  0.832365  0.579375  0.173927  1
  O  O32  1  0.671474  0.416554  0.818704  1
  O  O33  1  0.994811  0.176232  0.418453  1
  O  O34  1  0.865082  0.905866  0.047934  1
  O  O35  1  0.912625  0.580143  0.417163  1
  O  O36  1  0.726982  0.688777  0.900869  1
  O  O37  1  0.918901  0.948644  0.309576  1
