# generated using pymatgen
data_Sc3Zn17
_symmetry_space_group_name_H-M   'P 1'
_cell_length_a   11.95203119
_cell_length_b   11.95203059
_cell_length_c   11.95203094
_cell_angle_alpha   109.47122121
_cell_angle_beta   109.47122020
_cell_angle_gamma   109.47121969
_symmetry_Int_Tables_number   1
_chemical_formula_structural   Sc3Zn17
_chemical_formula_sum   'Sc12 Zn68'
_cell_volume   1314.32641378
_cell_formula_units_Z   4
loop_
 _symmetry_equiv_pos_site_id
 _symmetry_equiv_pos_as_xyz
  1  'x, y, z'
loop_
 _atom_site_type_symbol
 _atom_site_label
 _atom_site_symmetry_multiplicity
 _atom_site_fract_x
 _atom_site_fract_y
 _atom_site_fract_z
 _atom_site_occupancy
  Sc  Sc0  1  0.111895  0.300077  0.811818  1
  Sc  Sc1  1  0.300077  0.188182  0.488259  1
  Sc  Sc2  1  0.811818  0.111895  0.300077  1
  Sc  Sc3  1  0.811818  0.511741  0.699923  1
  Sc  Sc4  1  0.699923  0.188182  0.888105  1
  Sc  Sc5  1  0.488259  0.300077  0.188182  1
  Sc  Sc6  1  0.188182  0.488259  0.300077  1
  Sc  Sc7  1  0.511741  0.699923  0.811818  1
  Sc  Sc8  1  0.300077  0.811818  0.111895  1
  Sc  Sc9  1  0.188182  0.888105  0.699923  1
  Sc  Sc10  1  0.888105  0.699923  0.188182  1
  Sc  Sc11  1  0.699923  0.811818  0.511741  1
  Zn  Zn12  1  0.684087  0.544672  0.460279  1
  Zn  Zn13  1  1.000000  0.404388  0.404388  1
  Zn  Zn14  1  0.596113  0.941701  0.345588  1
  Zn  Zn15  1  0.223807  0.139414  0.684087  1
  Zn  Zn16  1  0.404388  0.000000  0.404388  1
  Zn  Zn17  1  0.776193  0.460279  0.915607  1
  Zn  Zn18  1  0.909717  0.230936  0.140653  1
  Zn  Zn19  1  0.595612  1.000000  0.595612  1
  Zn  Zn20  1  0.000000  0.000000  0.315395  1
  Zn  Zn21  1  0.139414  0.915607  0.455328  1
  Zn  Zn22  1  0.860586  0.084393  0.544672  1
  Zn  Zn23  1  0.403887  0.749474  0.345588  1
  Zn  Zn24  1  0.230936  0.321219  0.090283  1
  Zn  Zn25  1  0.455328  0.539721  0.315913  1
  Zn  Zn26  1  0.690123  0.190123  0.500000  1
  Zn  Zn27  1  0.539721  0.084393  0.223807  1
  Zn  Zn28  1  0.539721  0.315913  0.455328  1
  Zn  Zn29  1  0.190123  0.500000  0.690123  1
  Zn  Zn30  1  0.315395  0.315395  0.315395  1
  Zn  Zn31  1  0.595612  0.595612  1.000000  1
  Zn  Zn32  1  1.000000  0.684605  1.000000  1
  Zn  Zn33  1  0.769064  0.678781  0.909717  1
  Zn  Zn34  1  0.654412  0.596113  0.250526  1
  Zn  Zn35  1  0.500000  0.309877  0.809877  1
  Zn  Zn36  1  0.859347  0.090283  0.769064  1
  Zn  Zn37  1  0.654412  0.403887  0.058299  1
  Zn  Zn38  1  0.315913  0.455328  0.539721  1
  Zn  Zn39  1  0.460279  0.684087  0.544672  1
  Zn  Zn40  1  0.678781  0.909717  0.769064  1
  Zn  Zn41  1  0.230936  0.140653  0.909717  1
  Zn  Zn42  1  0.315913  0.776193  0.860586  1
  Zn  Zn43  1  0.000000  0.595612  0.595612  1
  Zn  Zn44  1  0.460279  0.915607  0.776193  1
  Zn  Zn45  1  0.915607  0.455328  0.139414  1
  Zn  Zn46  1  0.403887  0.058299  0.654412  1
  Zn  Zn47  1  0.309877  0.809877  0.500000  1
  Zn  Zn48  1  0.000000  0.315395  0.000000  1
  Zn  Zn49  1  0.345588  0.596113  0.941701  1
  Zn  Zn50  1  0.140653  0.909717  0.230936  1
  Zn  Zn51  1  0.544672  0.860586  0.084393  1
  Zn  Zn52  1  0.455328  0.139414  0.915607  1
  Zn  Zn53  1  0.596113  0.250526  0.654412  1
  Zn  Zn54  1  0.315395  1.000000  1.000000  1
  Zn  Zn55  1  0.000000  0.000000  0.684605  1
  Zn  Zn56  1  0.223807  0.539721  0.084393  1
  Zn  Zn57  1  0.684087  0.223807  0.139414  1
  Zn  Zn58  1  0.684605  0.000000  0.000000  1
  Zn  Zn59  1  0.250526  0.654412  0.596113  1
  Zn  Zn60  1  0.776193  0.860586  0.315913  1
  Zn  Zn61  1  0.500000  0.690123  0.190123  1
  Zn  Zn62  1  0.404388  0.404388  0.000000  1
  Zn  Zn63  1  0.941701  0.345588  0.596113  1
  Zn  Zn64  1  0.749474  0.345588  0.403887  1
  Zn  Zn65  1  0.058299  0.654412  0.403887  1
  Zn  Zn66  1  0.809877  0.500000  0.309877  1
  Zn  Zn67  1  0.909717  0.769064  0.678781  1
  Zn  Zn68  1  0.860586  0.315913  0.776193  1
  Zn  Zn69  1  0.090283  0.230936  0.321219  1
  Zn  Zn70  1  0.139414  0.684087  0.223807  1
  Zn  Zn71  1  0.321219  0.090283  0.230936  1
  Zn  Zn72  1  0.544672  0.460279  0.684087  1
  Zn  Zn73  1  0.084393  0.544672  0.860586  1
  Zn  Zn74  1  0.769064  0.859347  0.090283  1
  Zn  Zn75  1  0.084393  0.223807  0.539721  1
  Zn  Zn76  1  0.345588  0.403887  0.749474  1
  Zn  Zn77  1  0.090283  0.769064  0.859347  1
  Zn  Zn78  1  0.684605  0.684605  0.684605  1
  Zn  Zn79  1  0.915607  0.776193  0.460279  1
