# generated using pymatgen
data_Sc13Cu13O33
_symmetry_space_group_name_H-M   'P 1'
_cell_length_a   5.96404456
_cell_length_b   5.96404481
_cell_length_c   76.29911479
_cell_angle_alpha   32.53957432
_cell_angle_beta   32.53957071
_cell_angle_gamma   33.36506237
_symmetry_Int_Tables_number   1
_chemical_formula_structural   Sc13Cu13O33
_chemical_formula_sum   'Sc13 Cu13 O33'
_cell_volume   708.77138457
_cell_formula_units_Z   1
loop_
 _symmetry_equiv_pos_site_id
 _symmetry_equiv_pos_as_xyz
  1  'x, y, z'
loop_
 _atom_site_type_symbol
 _atom_site_label
 _atom_site_symmetry_multiplicity
 _atom_site_fract_x
 _atom_site_fract_y
 _atom_site_fract_z
 _atom_site_occupancy
  Sc  Sc0  1  0.488546  0.488546  0.039132  1
  Sc  Sc1  1  0.497789  0.497789  0.115087  1
  Sc  Sc2  1  0.515383  0.515383  0.192796  1
  Sc  Sc3  1  0.495500  0.495500  0.268320  1
  Sc  Sc4  1  0.515552  0.515552  0.346492  1
  Sc  Sc5  1  0.493788  0.493788  0.422451  1
  Sc  Sc6  1  0.514327  0.514327  0.500643  1
  Sc  Sc7  1  0.492888  0.492888  0.576803  1
  Sc  Sc8  1  0.504118  0.504118  0.652393  1
  Sc  Sc9  1  0.521809  0.521809  0.729910  1
  Sc  Sc10  1  0.507925  0.507925  0.807224  1
  Sc  Sc11  1  0.504331  0.504331  0.885067  1
  Sc  Sc12  1  0.501503  0.501503  0.963140  1
  Cu  Cu13  1  0.020395  0.020395  0.996028  1
  Cu  Cu14  1  0.980706  0.980706  0.079173  1
  Cu  Cu15  1  0.001288  0.001288  0.154257  1
  Cu  Cu16  1  0.020853  0.020853  0.226710  1
  Cu  Cu17  1  0.990538  0.990538  0.309438  1
  Cu  Cu18  1  0.989449  0.989449  0.463502  1
  Cu  Cu19  1  0.016326  0.016326  0.381194  1
  Cu  Cu20  1  0.017201  0.017201  0.535188  1
  Cu  Cu21  1  0.983482  0.983482  0.617102  1
  Cu  Cu22  1  0.001918  0.001918  0.692263  1
  Cu  Cu23  1  0.009731  0.009731  0.767219  1
  Cu  Cu24  1  0.013752  0.013752  0.920636  1
  Cu  Cu25  1  0.010242  0.010242  0.843909  1
  O  O26  1  0.106715  0.106715  0.008360  1
  O  O27  1  0.106836  0.106836  0.084633  1
  O  O28  1  0.117624  0.117624  0.161906  1
  O  O29  1  0.886126  0.886126  0.068716  1
  O  O30  1  0.116152  0.116152  0.237551  1
  O  O31  1  0.915566  0.915566  0.141801  1
  O  O32  1  0.629345  0.629345  0.207349  1
  O  O33  1  0.114515  0.114515  0.315795  1
  O  O34  1  0.870795  0.870795  0.224722  1
  O  O35  1  0.113545  0.113545  0.391756  1
  O  O36  1  0.912252  0.912252  0.295910  1
  O  O37  1  0.622765  0.622765  0.362108  1
  O  O38  1  0.112268  0.112268  0.470065  1
  O  O39  1  0.869558  0.869558  0.378637  1
  O  O40  1  0.113207  0.113207  0.545999  1
  O  O41  1  0.910685  0.910685  0.450043  1
  O  O42  1  0.621889  0.621889  0.516342  1
  O  O43  1  0.112453  0.112453  0.622049  1
  O  O44  1  0.868089  0.868089  0.532987  1
  O  O45  1  0.125327  0.125327  0.698659  1
  O  O46  1  0.890297  0.890297  0.606497  1
  O  O47  1  0.123429  0.123429  0.775605  1
  O  O48  1  0.923535  0.923535  0.678817  1
  O  O49  1  0.640992  0.640992  0.743918  1
  O  O50  1  0.113371  0.113371  0.853829  1
  O  O51  1  0.891195  0.891195  0.759782  1
  O  O52  1  0.631244  0.631244  0.823068  1
  O  O53  1  0.108779  0.108779  0.931991  1
  O  O54  1  0.889165  0.889165  0.836939  1
  O  O55  1  0.623081  0.623081  0.901402  1
  O  O56  1  0.885908  0.885908  0.914620  1
  O  O57  1  0.605040  0.605040  0.980510  1
  O  O58  1  0.863775  0.863775  0.995005  1
