# generated using pymatgen
data_Sc14Cu14O37
_symmetry_space_group_name_H-M   'P 1'
_cell_length_a   5.98592296
_cell_length_b   5.98592310
_cell_length_c   82.83643375
_cell_angle_alpha   32.64653756
_cell_angle_beta   32.64653550
_cell_angle_gamma   33.31264112
_symmetry_Int_Tables_number   1
_chemical_formula_structural   Sc14Cu14O37
_chemical_formula_sum   'Sc14 Cu14 O37'
_cell_volume   777.60264579
_cell_formula_units_Z   1
loop_
 _symmetry_equiv_pos_site_id
 _symmetry_equiv_pos_as_xyz
  1  'x, y, z'
loop_
 _atom_site_type_symbol
 _atom_site_label
 _atom_site_symmetry_multiplicity
 _atom_site_fract_x
 _atom_site_fract_y
 _atom_site_fract_z
 _atom_site_occupancy
  Sc  Sc0  1  0.488505  0.488505  0.036319  1
  Sc  Sc1  1  0.498411  0.498411  0.106905  1
  Sc  Sc2  1  0.516511  0.516511  0.179008  1
  Sc  Sc3  1  0.499684  0.499684  0.249710  1
  Sc  Sc4  1  0.488555  0.488555  0.319864  1
  Sc  Sc5  1  0.511266  0.511266  0.394478  1
  Sc  Sc6  1  0.497896  0.497896  0.463822  1
  Sc  Sc7  1  0.506120  0.506120  0.534214  1
  Sc  Sc8  1  0.522645  0.522645  0.606407  1
  Sc  Sc9  1  0.510879  0.510879  0.677833  1
  Sc  Sc10  1  0.507657  0.507657  0.750035  1
  Sc  Sc11  1  0.503247  0.503247  0.822084  1
  Sc  Sc12  1  0.500034  0.500034  0.893987  1
  Sc  Sc13  1  0.501247  0.501247  0.965901  1
  Cu  Cu14  1  0.019817  0.019817  0.996285  1
  Cu  Cu15  1  0.982909  0.982909  0.073136  1
  Cu  Cu16  1  0.002571  0.002571  0.143142  1
  Cu  Cu17  1  0.032483  0.032483  0.209330  1
  Cu  Cu18  1  0.958624  0.958624  0.291171  1
  Cu  Cu19  1  0.999411  0.999411  0.357183  1
  Cu  Cu20  1  0.029724  0.029724  0.424351  1
  Cu  Cu21  1  0.986130  0.986130  0.501273  1
  Cu  Cu22  1  0.998510  0.998510  0.571903  1
  Cu  Cu23  1  0.008057  0.008057  0.641210  1
  Cu  Cu24  1  0.009902  0.009902  0.712189  1
  Cu  Cu25  1  0.009343  0.009343  0.783704  1
  Cu  Cu26  1  0.009222  0.009222  0.855186  1
  Cu  Cu27  1  0.013508  0.013508  0.926241  1
  O  O28  1  0.106697  0.106697  0.007660  1
  O  O29  1  0.107314  0.107314  0.078364  1
  O  O30  1  0.119332  0.119332  0.150196  1
  O  O31  1  0.888104  0.888104  0.063668  1
  O  O32  1  0.120463  0.120463  0.220674  1
  O  O33  1  0.915127  0.915127  0.131789  1
  O  O34  1  0.631224  0.631224  0.192584  1
  O  O35  1  0.130749  0.130749  0.290074  1
  O  O36  1  0.875739  0.875739  0.208393  1
  O  O37  1  0.342321  0.342321  0.311509  1
  O  O38  1  0.093411  0.093411  0.368197  1
  O  O39  1  0.886632  0.886632  0.277573  1
  O  O40  1  0.112661  0.112661  0.436343  1
  O  O41  1  0.906175  0.906175  0.346171  1
  O  O42  1  0.656343  0.656343  0.402814  1
  O  O43  1  0.111175  0.111175  0.506309  1
  O  O44  1  0.863245  0.863245  0.424668  1
  O  O45  1  0.125442  0.125442  0.577306  1
  O  O46  1  0.887854  0.887854  0.492443  1
  O  O47  1  0.124516  0.124516  0.648779  1
  O  O48  1  0.921361  0.921361  0.559208  1
  O  O49  1  0.644663  0.644663  0.618686  1
  O  O50  1  0.116582  0.116582  0.721049  1
  O  O51  1  0.890820  0.890820  0.633903  1
  O  O52  1  0.635056  0.635056  0.692186  1
  O  O53  1  0.114757  0.114757  0.792726  1
  O  O54  1  0.890006  0.890006  0.705370  1
  O  O55  1  0.627773  0.627773  0.764449  1
  O  O56  1  0.113179  0.113179  0.864494  1
  O  O57  1  0.886911  0.886911  0.777249  1
  O  O58  1  0.621926  0.621926  0.836798  1
  O  O59  1  0.109871  0.109871  0.936864  1
  O  O60  1  0.883976  0.883976  0.849109  1
  O  O61  1  0.617556  0.617556  0.909173  1
  O  O62  1  0.883474  0.883474  0.920853  1
  O  O63  1  0.602619  0.602619  0.982105  1
  O  O64  1  0.864849  0.864849  0.995022  1
