# generated using pymatgen
data_Sc2Ti2O7
_symmetry_space_group_name_H-M   'P 1'
_cell_length_a   7.36407918
_cell_length_b   5.09827230
_cell_length_c   25.93184663
_cell_angle_alpha   90.00000000
_cell_angle_beta   98.05344759
_cell_angle_gamma   90.00000000
_symmetry_Int_Tables_number   1
_chemical_formula_structural   Sc2Ti2O7
_chemical_formula_sum   'Sc16 Ti16 O56'
_cell_volume   963.98564638
_cell_formula_units_Z   8
loop_
 _symmetry_equiv_pos_site_id
 _symmetry_equiv_pos_as_xyz
  1  'x, y, z'
loop_
 _atom_site_type_symbol
 _atom_site_label
 _atom_site_symmetry_multiplicity
 _atom_site_fract_x
 _atom_site_fract_y
 _atom_site_fract_z
 _atom_site_occupancy
  Sc  Sc0  1  0.168464  0.248312  0.803042  1
  Sc  Sc1  1  0.217694  0.765076  0.931368  1
  Sc  Sc2  1  0.143493  0.167675  0.277784  1
  Sc  Sc3  1  0.322416  0.743595  0.701347  1
  Sc  Sc4  1  0.228273  0.717382  0.466587  1
  Sc  Sc5  1  0.283466  0.264359  0.569153  1
  Sc  Sc6  1  0.270146  0.220806  0.033857  1
  Sc  Sc7  1  0.361583  0.678963  0.221028  1
  Sc  Sc8  1  0.638417  0.178963  0.778972  1
  Sc  Sc9  1  0.729854  0.720806  0.966143  1
  Sc  Sc10  1  0.716534  0.764359  0.430847  1
  Sc  Sc11  1  0.771727  0.217382  0.533413  1
  Sc  Sc12  1  0.677584  0.243595  0.298653  1
  Sc  Sc13  1  0.856507  0.667675  0.722216  1
  Sc  Sc14  1  0.782306  0.265076  0.068632  1
  Sc  Sc15  1  0.831536  0.748312  0.196958  1
  Ti  Ti16  1  0.069747  0.221888  0.663901  1
  Ti  Ti17  1  0.030132  0.733117  0.563470  1
  Ti  Ti18  1  0.034869  0.740799  0.059603  1
  Ti  Ti19  1  0.470990  0.238261  0.937967  1
  Ti  Ti20  1  0.430430  0.729536  0.837239  1
  Ti  Ti21  1  0.084228  0.240414  0.160543  1
  Ti  Ti22  1  0.464794  0.238521  0.440053  1
  Ti  Ti23  1  0.585791  0.235312  0.661524  1
  Ti  Ti24  1  0.414209  0.735312  0.338476  1
  Ti  Ti25  1  0.535206  0.738521  0.559947  1
  Ti  Ti26  1  0.915772  0.740414  0.839457  1
  Ti  Ti27  1  0.569570  0.229536  0.162761  1
  Ti  Ti28  1  0.529010  0.738261  0.062033  1
  Ti  Ti29  1  0.965131  0.240799  0.940397  1
  Ti  Ti30  1  0.969868  0.233117  0.436530  1
  Ti  Ti31  1  0.930253  0.721888  0.336099  1
  O  O32  1  0.065148  0.949621  0.987942  1
  O  O33  1  0.019433  0.049567  0.884942  1
  O  O34  1  0.141843  0.540522  0.618931  1
  O  O35  1  0.994703  0.083021  0.587500  1
  O  O36  1  0.149150  0.421996  0.727365  1
  O  O37  1  0.175659  0.600797  0.850814  1
  O  O38  1  0.044497  0.895823  0.689732  1
  O  O39  1  0.228719  0.379739  0.957430  1
  O  O40  1  0.076446  0.453266  0.513971  1
  O  O41  1  0.359114  0.047767  0.882101  1
  O  O42  1  0.424101  0.953877  0.986817  1
  O  O43  1  0.346142  0.926661  0.774639  1
  O  O44  1  0.042801  0.450594  0.215559  1
  O  O45  1  0.326082  0.096293  0.652706  1
  O  O46  1  0.271723  0.878635  0.543319  1
  O  O47  1  0.167236  0.869389  0.334722  1
  O  O48  1  0.217746  0.113232  0.440277  1
  O  O49  1  0.139195  0.949011  0.207325  1
  O  O50  1  0.450155  0.403989  0.810747  1
  O  O51  1  0.097236  0.082503  0.088001  1
  O  O52  1  0.505771  0.587342  0.913217  1
  O  O53  1  0.433724  0.448521  0.511698  1
  O  O54  1  0.599859  0.077617  0.589258  1
  O  O55  1  0.481917  0.539616  0.614327  1
  O  O56  1  0.281795  0.615221  0.060078  1
  O  O57  1  0.446261  0.962232  0.283588  1
  O  O58  1  0.645122  0.958405  0.710536  1
  O  O59  1  0.331786  0.373428  0.165297  1
  O  O60  1  0.668214  0.873428  0.834703  1
  O  O61  1  0.354878  0.458405  0.289464  1
  O  O62  1  0.553739  0.462232  0.716412  1
  O  O63  1  0.718205  0.115221  0.939922  1
  O  O64  1  0.518083  0.039616  0.385673  1
  O  O65  1  0.400141  0.577617  0.410742  1
  O  O66  1  0.566276  0.948521  0.488302  1
  O  O67  1  0.494229  0.087342  0.086783  1
  O  O68  1  0.902764  0.582503  0.911999  1
  O  O69  1  0.549845  0.903989  0.189253  1
  O  O70  1  0.860805  0.449011  0.792675  1
  O  O71  1  0.782254  0.613232  0.559723  1
  O  O72  1  0.832764  0.369389  0.665278  1
  O  O73  1  0.728277  0.378635  0.456681  1
  O  O74  1  0.673918  0.596293  0.347294  1
  O  O75  1  0.957199  0.950594  0.784441  1
  O  O76  1  0.653858  0.426661  0.225361  1
  O  O77  1  0.575899  0.453877  0.013183  1
  O  O78  1  0.640886  0.547767  0.117899  1
  O  O79  1  0.923554  0.953266  0.486029  1
  O  O80  1  0.771281  0.879739  0.042570  1
  O  O81  1  0.955503  0.395823  0.310268  1
  O  O82  1  0.824341  0.100797  0.149186  1
  O  O83  1  0.850850  0.921996  0.272635  1
  O  O84  1  0.005297  0.583021  0.412500  1
  O  O85  1  0.858157  0.040522  0.381069  1
  O  O86  1  0.980567  0.549567  0.115058  1
  O  O87  1  0.934852  0.449621  0.012058  1
