# generated using pymatgen
data_ScMo3O8
_symmetry_space_group_name_H-M   'P 1'
_cell_length_a   6.19315105
_cell_length_b   6.08571367
_cell_length_c   4.55245572
_cell_angle_alpha   89.73467413
_cell_angle_beta   89.36708310
_cell_angle_gamma   119.21657694
_symmetry_Int_Tables_number   1
_chemical_formula_structural   ScMo3O8
_chemical_formula_sum   'Sc1 Mo3 O8'
_cell_volume   149.73351111
_cell_formula_units_Z   1
loop_
 _symmetry_equiv_pos_site_id
 _symmetry_equiv_pos_as_xyz
  1  'x, y, z'
loop_
 _atom_site_type_symbol
 _atom_site_label
 _atom_site_symmetry_multiplicity
 _atom_site_fract_x
 _atom_site_fract_y
 _atom_site_fract_z
 _atom_site_occupancy
  O  O0  1  0.505892  0.003793  0.484679  1
  O  O1  1  0.673914  0.347747  0.024973  1
  O  O2  1  0.680863  0.829919  0.019736  1
  O  O3  1  0.163714  0.835269  0.021821  1
  O  O4  1  0.986778  0.504035  0.486457  1
  O  O5  1  0.996465  0.985819  0.485016  1
  O  O6  1  0.502975  0.497629  0.484909  1
  O  O7  1  0.161626  0.327488  0.021274  1
  Sc  Sc8  1  0.327799  0.664124  0.749868  1
  Mo  Mo9  1  0.836399  0.170101  0.257837  1
  Mo  Mo10  1  0.831061  0.669825  0.248608  1
  Mo  Mo11  1  0.334592  0.166331  0.253931  1
