# generated using pymatgen
data_Sc(TiN)9
_symmetry_space_group_name_H-M   'P 1'
_cell_length_a   6.04335480
_cell_length_b   16.85282808
_cell_length_c   8.01241601
_cell_angle_alpha   18.07372895
_cell_angle_beta   55.47239852
_cell_angle_gamma   51.05796869
_symmetry_Int_Tables_number   1
_chemical_formula_structural   Sc(TiN)9
_chemical_formula_sum   'Sc1 Ti9 N9'
_cell_volume   195.30943354
_cell_formula_units_Z   1
loop_
 _symmetry_equiv_pos_site_id
 _symmetry_equiv_pos_as_xyz
  1  'x, y, z'
loop_
 _atom_site_type_symbol
 _atom_site_label
 _atom_site_symmetry_multiplicity
 _atom_site_fract_x
 _atom_site_fract_y
 _atom_site_fract_z
 _atom_site_occupancy
  N  N0  1  0.991433  0.006459  0.988590  1
  N  N1  1  0.501106  0.006297  0.991894  1
  N  N2  1  0.298894  0.393703  0.008106  1
  N  N3  1  0.900000  0.200000  0.000000  1
  N  N4  1  0.196061  0.597793  0.010614  1
  N  N5  1  0.808567  0.393541  0.011410  1
  N  N6  1  0.102533  0.797226  0.004172  1
  N  N7  1  0.697467  0.602774  0.995828  1
  N  N8  1  0.603939  0.802207  0.989386  1
  Sc  Sc9  1  0.400000  0.700000  0.500000  1
  Ti  Ti10  1  0.193620  0.092043  0.526161  1
  Ti  Ti11  1  0.091138  0.304006  0.498639  1
  Ti  Ti12  1  0.708862  0.095994  0.501361  1
  Ti  Ti13  1  0.606380  0.307957  0.473839  1
  Ti  Ti14  1  0.501565  0.514894  0.471373  1
  Ti  Ti15  1  0.986200  0.507914  0.489711  1
  Ti  Ti16  1  0.298435  0.885106  0.528627  1
  Ti  Ti17  1  0.900000  0.700000  0.500000  1
  Ti  Ti18  1  0.813800  0.892086  0.510289  1
