# generated using pymatgen
data_Ag6Mo10O33
_symmetry_space_group_name_H-M   'P 1'
_cell_length_a   7.68842477
_cell_length_b   8.48130692
_cell_length_c   11.55226619
_cell_angle_alpha   86.85006872
_cell_angle_beta   78.11979683
_cell_angle_gamma   76.36305130
_symmetry_Int_Tables_number   1
_chemical_formula_structural   Ag6Mo10O33
_chemical_formula_sum   'Ag6 Mo10 O33'
_cell_volume   716.36583585
_cell_formula_units_Z   1
loop_
 _symmetry_equiv_pos_site_id
 _symmetry_equiv_pos_as_xyz
  1  'x, y, z'
loop_
 _atom_site_type_symbol
 _atom_site_label
 _atom_site_symmetry_multiplicity
 _atom_site_fract_x
 _atom_site_fract_y
 _atom_site_fract_z
 _atom_site_occupancy
  O  O0  1  0.806517  0.827800  0.475515  1
  O  O1  1  0.193484  0.172201  0.524484  1
  O  O2  1  0.710884  0.170648  0.479354  1
  O  O3  1  0.289116  0.829352  0.520646  1
  O  O4  1  0.605534  0.626162  0.392834  1
  O  O5  1  0.394465  0.373838  0.607165  1
  O  O6  1  0.158369  0.649538  0.377063  1
  O  O7  1  0.841631  0.350461  0.622937  1
  O  O8  1  0.553658  0.987061  0.378562  1
  O  O9  1  0.446342  0.012939  0.621437  1
  O  O10  1  0.028528  0.003330  0.380711  1
  O  O11  1  0.971472  0.996670  0.619288  1
  O  O12  1  0.968080  0.355850  0.378987  1
  O  O13  1  0.031920  0.644150  0.621013  1
  O  O14  1  0.416894  0.325898  0.369381  1
  O  O15  1  0.583106  0.674103  0.630619  1
  O  O16  1  -0.000001  0.000001  0.000000  1
  O  O17  1  0.900181  0.319156  0.003742  1
  O  O18  1  0.099819  0.680844  0.996258  1
  O  O19  1  0.346912  0.004339  0.923284  1
  O  O20  1  0.653088  0.995661  0.076716  1
  O  O21  1  0.478861  0.658544  0.908941  1
  O  O22  1  0.521140  0.341455  0.091059  1
  O  O23  1  0.248691  0.347431  0.905563  1
  O  O24  1  0.892345  0.837509  0.219944  1
  O  O25  1  0.808170  0.800237  0.874281  1
  O  O26  1  0.191831  0.199763  0.125719  1
  O  O27  1  0.685183  0.198153  0.874610  1
  O  O28  1  0.314817  0.801847  0.125390  1
  O  O29  1  0.214487  0.828818  0.774895  1
  O  O30  1  0.785513  0.171182  0.225105  1
  O  O31  1  0.107655  0.162491  0.780055  1
  O  O32  1  0.751309  0.652569  0.094437  1
  Mo  Mo33  1  0.812179  0.999406  0.319343  1
  Mo  Mo34  1  0.187822  0.000593  0.680656  1
  Mo  Mo35  1  0.713074  0.199489  0.021499  1
  Mo  Mo36  1  0.286926  0.800511  0.978501  1
  Mo  Mo37  1  0.847831  0.806908  0.018719  1
  Mo  Mo38  1  0.152169  0.193092  0.981281  1
  Mo  Mo39  1  0.940115  0.224714  0.501351  1
  Mo  Mo40  1  0.059885  0.775286  0.498648  1
  Mo  Mo41  1  0.558477  0.776559  0.498360  1
  Mo  Mo42  1  0.441523  0.223441  0.501638  1
  Ag  Ag43  1  0.822548  0.474090  0.234595  1
  Ag  Ag44  1  0.177451  0.525909  0.765406  1
  Ag  Ag45  1  0.266511  0.471429  0.221727  1
  Ag  Ag46  1  0.733491  0.528571  0.778273  1
  Ag  Ag47  1  0.350752  0.998439  0.246798  1
  Ag  Ag48  1  0.649249  0.001562  0.753202  1
