# generated using pymatgen
data_Sc11Nb3O24
_symmetry_space_group_name_H-M   'P 1'
_cell_length_a   6.13825393
_cell_length_b   6.16848238
_cell_length_c   24.51398625
_cell_angle_alpha   99.25172421
_cell_angle_beta   99.25600660
_cell_angle_gamma   99.26060560
_symmetry_Int_Tables_number   1
_chemical_formula_structural   Sc11Nb3O24
_chemical_formula_sum   'Sc22 Nb6 O48'
_cell_volume   887.41077999
_cell_formula_units_Z   2
loop_
 _symmetry_equiv_pos_site_id
 _symmetry_equiv_pos_as_xyz
  1  'x, y, z'
loop_
 _atom_site_type_symbol
 _atom_site_label
 _atom_site_symmetry_multiplicity
 _atom_site_fract_x
 _atom_site_fract_y
 _atom_site_fract_z
 _atom_site_occupancy
  Nb  Nb0  1  0.996443  0.001687  0.752152  1
  Nb  Nb1  1  0.389969  0.862178  0.923152  1
  Nb  Nb2  1  0.004429  0.013401  0.499221  1
  Nb  Nb3  1  0.995506  0.001625  0.252463  1
  Nb  Nb4  1  0.859308  0.681272  0.596744  1
  Nb  Nb5  1  0.855266  0.685558  0.096883  1
  O  O6  1  0.076985  0.903726  0.920093  1
  O  O7  1  0.085365  0.328941  0.984602  1
  O  O8  1  0.034246  0.886938  0.670104  1
  O  O9  1  0.184591  0.588606  0.856022  1
  O  O10  1  0.096388  0.308974  0.735626  1
  O  O11  1  0.040048  0.887936  0.424196  1
  O  O12  1  0.316413  0.949629  0.770884  1
  O  O13  1  0.175987  0.592789  0.604657  1
  O  O14  1  0.433930  0.587839  0.952519  1
  O  O15  1  0.106840  0.315255  0.490158  1
  O  O16  1  0.034644  0.885776  0.169539  1
  O  O17  1  0.418371  0.173605  0.896079  1
  O  O18  1  0.312173  0.952079  0.527833  1
  O  O19  1  0.176789  0.583828  0.353663  1
  O  O20  1  0.418826  0.581265  0.704427  1
  O  O21  1  0.090880  0.307896  0.234375  1
  O  O22  1  0.576398  0.823903  0.858558  1
  O  O23  1  0.422378  0.177918  0.645952  1
  O  O24  1  0.313404  0.948103  0.269575  1
  O  O25  1  0.580289  0.421656  0.794053  1
  O  O26  1  0.173668  0.587500  0.104029  1
  O  O27  1  0.417873  0.584605  0.455725  1
  O  O28  1  0.679749  0.043459  0.972166  1
  O  O29  1  0.594294  0.817564  0.606693  1
  O  O30  1  0.413235  0.176118  0.395677  1
  O  O31  1  0.332157  0.932552  0.017771  1
  O  O32  1  0.589233  0.428073  0.546871  1
  O  O33  1  0.819876  0.420716  0.893652  1
  O  O34  1  0.417449  0.577220  0.203975  1
  O  O35  1  0.688469  0.051080  0.726099  1
  O  O36  1  0.579604  0.821970  0.352978  1
  O  O37  1  0.415982  0.172570  0.143709  1
  O  O38  1  0.906761  0.686084  0.762671  1
  O  O39  1  0.581379  0.416005  0.293946  1
  O  O40  1  0.823925  0.435504  0.642779  1
  O  O41  1  0.685844  0.051451  0.478108  1
  O  O42  1  0.586414  0.810866  0.106710  1
  O  O43  1  0.949430  0.095092  0.829137  1
  O  O44  1  0.902698  0.681955  0.517844  1
  O  O45  1  0.583544  0.420110  0.044355  1
  O  O46  1  0.820366  0.413476  0.396141  1
  O  O47  1  0.686219  0.049417  0.225529  1
  O  O48  1  0.946400  0.082751  0.580923  1
  O  O49  1  0.899603  0.686305  0.261392  1
  O  O50  1  0.817847  0.438140  0.142353  1
  O  O51  1  0.956081  0.097928  0.329220  1
  O  O52  1  0.903715  0.683018  0.019423  1
  O  O53  1  0.935382  0.080767  0.082312  1
  Sc  Sc54  1  0.141549  0.324351  0.902733  1
  Sc  Sc55  1  0.149947  0.326207  0.652423  1
  Sc  Sc56  1  0.320505  0.608349  0.784371  1
  Sc  Sc57  1  0.386397  0.866073  0.674197  1
  Sc  Sc58  1  0.145045  0.336541  0.401493  1
  Sc  Sc59  1  0.325218  0.617794  0.535150  1
  Sc  Sc60  1  0.391269  0.855605  0.416780  1
  Sc  Sc61  1  0.142884  0.323681  0.151279  1
  Sc  Sc62  1  0.009870  0.009708  0.002469  1
  Sc  Sc63  1  0.702670  0.383866  0.965379  1
  Sc  Sc64  1  0.323119  0.606728  0.283800  1
  Sc  Sc65  1  0.607193  0.146962  0.830704  1
  Sc  Sc66  1  0.384986  0.862052  0.173613  1
  Sc  Sc67  1  0.677148  0.393366  0.715088  1
  Sc  Sc68  1  0.316046  0.604721  0.033549  1
  Sc  Sc69  1  0.858169  0.677085  0.847758  1
  Sc  Sc70  1  0.610136  0.140593  0.580103  1
  Sc  Sc71  1  0.666320  0.385422  0.462693  1
  Sc  Sc72  1  0.606635  0.140622  0.330451  1
  Sc  Sc73  1  0.675504  0.391278  0.214145  1
  Sc  Sc74  1  0.851214  0.668412  0.346704  1
  Sc  Sc75  1  0.605113  0.135905  0.079399  1
