# generated using pymatgen
data_Co(NiO2)2
_symmetry_space_group_name_H-M   'P 1'
_cell_length_a   5.84382223
_cell_length_b   5.84385329
_cell_length_c   5.84381398
_cell_angle_alpha   60.00687099
_cell_angle_beta   60.00677179
_cell_angle_gamma   60.00677208
_symmetry_Int_Tables_number   1
_chemical_formula_structural   Co(NiO2)2
_chemical_formula_sum   'Co2 Ni4 O8'
_cell_volume   141.13823524
_cell_formula_units_Z   2
loop_
 _symmetry_equiv_pos_site_id
 _symmetry_equiv_pos_as_xyz
  1  'x, y, z'
loop_
 _atom_site_type_symbol
 _atom_site_label
 _atom_site_symmetry_multiplicity
 _atom_site_fract_x
 _atom_site_fract_y
 _atom_site_fract_z
 _atom_site_occupancy
  Co  Co0  1  0.125003  0.124996  0.125002  1
  Co  Co1  1  0.874995  0.875002  0.874998  1
  Ni  Ni2  1  0.500013  -0.000031  0.500010  1
  Ni  Ni3  1  0.500010  0.500011  -0.000030  1
  Ni  Ni4  1  -0.000032  0.500011  0.500010  1
  Ni  Ni5  1  0.500010  0.500011  0.500009  1
  O  O6  1  0.723823  0.258612  0.258614  1
  O  O7  1  0.258791  0.258786  0.258788  1
  O  O8  1  0.741384  0.276184  0.741387  1
  O  O9  1  0.741382  0.741387  0.276187  1
  O  O10  1  0.258618  0.258613  0.723819  1
  O  O11  1  0.258616  0.723820  0.258613  1
  O  O12  1  0.276184  0.741388  0.741385  1
  O  O13  1  0.741204  0.741210  0.741207  1
