# generated using pymatgen
data_Sc(CuO2)2
_symmetry_space_group_name_H-M   'P 1'
_cell_length_a   5.63504322
_cell_length_b   6.78934264
_cell_length_c   5.63504322
_cell_angle_alpha   65.48120385
_cell_angle_beta   90.00000000
_cell_angle_gamma   114.51879615
_symmetry_Int_Tables_number   1
_chemical_formula_structural   Sc(CuO2)2
_chemical_formula_sum   'Sc2 Cu4 O8'
_cell_volume   174.55395120
_cell_formula_units_Z   2
loop_
 _symmetry_equiv_pos_site_id
 _symmetry_equiv_pos_as_xyz
  1  'x, y, z'
loop_
 _atom_site_type_symbol
 _atom_site_label
 _atom_site_symmetry_multiplicity
 _atom_site_fract_x
 _atom_site_fract_y
 _atom_site_fract_z
 _atom_site_occupancy
  Sc  Sc0  1  0.000000  0.000000  0.000000  1
  Sc  Sc1  1  0.750000  0.500000  0.750000  1
  Cu  Cu2  1  0.875000  0.250000  0.375000  1
  Cu  Cu3  1  0.375000  0.250000  0.375000  1
  Cu  Cu4  1  0.375000  0.750000  0.375000  1
  Cu  Cu5  1  0.375000  0.750000  0.875000  1
  O  O6  1  0.118876  0.237754  0.154404  1
  O  O7  1  0.631124  0.262246  0.142157  1
  O  O8  1  0.154404  0.762246  0.118876  1
  O  O9  1  0.607843  0.762246  0.118876  1
  O  O10  1  0.118876  0.237754  0.607843  1
  O  O11  1  0.631124  0.262246  0.595596  1
  O  O12  1  0.595596  0.737754  0.631124  1
  O  O13  1  0.142157  0.737754  0.631124  1
