# generated using pymatgen
data_Sc2TiO5
_symmetry_space_group_name_H-M   'P 1'
_cell_length_a   3.87999397
_cell_length_b   5.47233473
_cell_length_c   10.35056243
_cell_angle_alpha   90.00000000
_cell_angle_beta   90.00000000
_cell_angle_gamma   110.76341756
_symmetry_Int_Tables_number   1
_chemical_formula_structural   Sc2TiO5
_chemical_formula_sum   'Sc4 Ti2 O10'
_cell_volume   205.49606888
_cell_formula_units_Z   2
loop_
 _symmetry_equiv_pos_site_id
 _symmetry_equiv_pos_as_xyz
  1  'x, y, z'
loop_
 _atom_site_type_symbol
 _atom_site_label
 _atom_site_symmetry_multiplicity
 _atom_site_fract_x
 _atom_site_fract_y
 _atom_site_fract_z
 _atom_site_occupancy
  Sc  Sc0  1  0.363007  0.726013  0.436612  1
  Sc  Sc1  1  0.305907  0.611815  0.749603  1
  Sc  Sc2  1  0.694093  0.388185  0.249603  1
  Sc  Sc3  1  0.636993  0.273987  0.936612  1
  Ti  Ti4  1  0.366405  0.732811  0.059118  1
  Ti  Ti5  1  0.633595  0.267189  0.559118  1
  O  O6  1  0.446037  0.892073  0.891575  1
  O  O7  1  0.186044  0.372086  0.570273  1
  O  O8  1  0.270219  0.540437  0.242009  1
  O  O9  1  0.198781  0.397561  0.931842  1
  O  O10  1  0.463574  0.927148  0.618969  1
  O  O11  1  0.729781  0.459563  0.742009  1
  O  O12  1  0.813956  0.627914  0.070273  1
  O  O13  1  0.553963  0.107927  0.391575  1
  O  O14  1  0.536426  0.072852  0.118969  1
  O  O15  1  0.801219  0.602439  0.431842  1
