# generated using pymatgen
data_Sc2V2O7
_symmetry_space_group_name_H-M   'P 1'
_cell_length_a   6.93829648
_cell_length_b   6.93840380
_cell_length_c   6.93821149
_cell_angle_alpha   60.00614909
_cell_angle_beta   60.00488612
_cell_angle_gamma   60.00552785
_symmetry_Int_Tables_number   1
_chemical_formula_structural   Sc2V2O7
_chemical_formula_sum   'Sc4 V4 O14'
_cell_volume   236.21056498
_cell_formula_units_Z   2
loop_
 _symmetry_equiv_pos_site_id
 _symmetry_equiv_pos_as_xyz
  1  'x, y, z'
loop_
 _atom_site_type_symbol
 _atom_site_label
 _atom_site_symmetry_multiplicity
 _atom_site_fract_x
 _atom_site_fract_y
 _atom_site_fract_z
 _atom_site_occupancy
  Sc  Sc0  1  0.500008  0.499995  0.999997  1
  Sc  Sc1  1  0.499999  0.000001  0.499994  1
  Sc  Sc2  1  0.000005  0.499998  0.499995  1
  Sc  Sc3  1  0.499999  0.500003  0.500000  1
  V  V4  1  0.500001  -0.000003  -0.000000  1
  V  V5  1  0.000003  -0.000004  -0.000001  1
  V  V6  1  0.000002  0.500010  -0.000005  1
  V  V7  1  0.999998  -0.000001  0.500006  1
  O  O8  1  0.661262  0.088718  0.088731  1
  O  O9  1  0.911310  0.338759  0.338754  1
  O  O10  1  0.374926  0.374928  0.374952  1
  O  O11  1  0.661228  0.088701  0.661246  1
  O  O12  1  0.088714  0.661265  0.088731  1
  O  O13  1  0.088730  0.088715  0.661281  1
  O  O14  1  0.661238  0.661233  0.088706  1
  O  O15  1  0.338769  0.911306  0.338752  1
  O  O16  1  0.911270  0.338731  0.911277  1
  O  O17  1  0.338760  0.338772  0.911292  1
  O  O18  1  0.625068  0.625066  0.625050  1
  O  O19  1  0.911277  0.911286  0.338721  1
  O  O20  1  0.088700  0.661235  0.661240  1
  O  O21  1  0.338733  0.911287  0.911280  1
