# generated using pymatgen
data_CoWO4
_symmetry_space_group_name_H-M   'P 1'
_cell_length_a   4.72156080
_cell_length_b   5.04918225
_cell_length_c   5.76163283
_cell_angle_alpha   90.00021321
_cell_angle_beta   89.99860858
_cell_angle_gamma   90.55476082
_symmetry_Int_Tables_number   1
_chemical_formula_structural   CoWO4
_chemical_formula_sum   'Co2 W2 O8'
_cell_volume   137.35100902
_cell_formula_units_Z   2
loop_
 _symmetry_equiv_pos_site_id
 _symmetry_equiv_pos_as_xyz
  1  'x, y, z'
loop_
 _atom_site_type_symbol
 _atom_site_label
 _atom_site_symmetry_multiplicity
 _atom_site_fract_x
 _atom_site_fract_y
 _atom_site_fract_z
 _atom_site_occupancy
  Co  Co0  1  0.499988  0.253740  0.660495  1
  Co  Co1  1  0.500006  0.753762  0.339486  1
  W  W2  1  0.999973  0.749989  0.825791  1
  W  W3  1  1.000007  0.249995  0.174207  1
  O  O4  1  0.742775  0.099732  0.376738  1
  O  O5  1  0.258224  0.400177  0.374763  1
  O  O6  1  0.742760  0.599720  0.623274  1
  O  O7  1  0.782461  0.567773  0.108121  1
  O  O8  1  0.216571  0.428591  0.890604  1
  O  O9  1  0.782445  0.067762  0.891897  1
  O  O10  1  0.216577  0.928599  0.109392  1
  O  O11  1  0.258213  0.900161  0.625233  1
