# generated using pymatgen
data_Sc3NbO7
_symmetry_space_group_name_H-M   'P 1'
_cell_length_a   7.18714688
_cell_length_b   16.35684514
_cell_length_c   8.82061504
_cell_angle_alpha   26.11975306
_cell_angle_beta   35.37036753
_cell_angle_gamma   48.82316129
_symmetry_Int_Tables_number   1
_chemical_formula_structural   Sc3NbO7
_chemical_formula_sum   'Sc6 Nb2 O14'
_cell_volume   252.94384752
_cell_formula_units_Z   2
loop_
 _symmetry_equiv_pos_site_id
 _symmetry_equiv_pos_as_xyz
  1  'x, y, z'
loop_
 _atom_site_type_symbol
 _atom_site_label
 _atom_site_symmetry_multiplicity
 _atom_site_fract_x
 _atom_site_fract_y
 _atom_site_fract_z
 _atom_site_occupancy
  Sc  Sc0  1  0.002804  0.000923  0.996275  1
  Sc  Sc1  1  0.502945  0.000874  0.995597  1
  Sc  Sc2  1  0.395416  0.246006  0.980540  1
  Sc  Sc3  1  0.842282  0.248651  0.029236  1
  Sc  Sc4  1  0.160817  0.755277  0.961843  1
  Sc  Sc5  1  0.604603  0.753175  0.020005  1
  Nb  Nb6  1  0.252516  0.501006  0.995957  1
  Nb  Nb7  1  0.745088  0.500528  0.003037  1
  O  O8  1  0.513640  0.000534  0.235430  1
  O  O9  1  0.314711  0.235411  0.281186  1
  O  O10  1  0.491815  0.000624  0.757390  1
  O  O11  1  0.308383  0.543959  0.135152  1
  O  O12  1  0.907715  0.253530  0.255436  1
  O  O13  1  0.322490  0.236077  0.772320  1
  O  O14  1  0.067999  0.747812  0.266914  1
  O  O15  1  0.747268  0.457328  0.306821  1
  O  O16  1  0.249202  0.544367  0.693501  1
  O  O17  1  0.934711  0.253677  0.727645  1
  O  O18  1  0.681378  0.765145  0.221164  1
  O  O19  1  0.095610  0.747658  0.738473  1
  O  O20  1  0.684536  0.456103  0.871484  1
  O  O21  1  0.688968  0.764641  0.714978  1
