# generated using pymatgen
data_Sc3OsC4
_symmetry_space_group_name_H-M   'P 1'
_cell_length_a   4.48400990
_cell_length_b   6.71752355
_cell_length_c   6.80742455
_cell_angle_alpha   104.30891175
_cell_angle_beta   109.22915116
_cell_angle_gamma   90.00000000
_symmetry_Int_Tables_number   1
_chemical_formula_structural   Sc3OsC4
_chemical_formula_sum   'Sc6 Os2 C8'
_cell_volume   186.85928807
_cell_formula_units_Z   2
loop_
 _symmetry_equiv_pos_site_id
 _symmetry_equiv_pos_as_xyz
  1  'x, y, z'
loop_
 _atom_site_type_symbol
 _atom_site_label
 _atom_site_symmetry_multiplicity
 _atom_site_fract_x
 _atom_site_fract_y
 _atom_site_fract_z
 _atom_site_occupancy
  Sc  Sc0  1  0.499999  0.000000  0.000000  1
  Sc  Sc1  1  0.500000  0.500001  0.000001  1
  Sc  Sc2  1  0.189523  0.094416  0.379045  1
  Sc  Sc3  1  0.191758  0.596310  0.383516  1
  Sc  Sc4  1  0.808242  0.403690  0.616485  1
  Sc  Sc5  1  0.810477  0.905584  0.620956  1
  Os  Os6  1  0.000296  0.736182  0.000591  1
  Os  Os7  1  0.999704  0.263818  0.999409  1
  C  C8  1  0.466516  0.314698  0.254678  1
  C  C9  1  0.788162  0.314698  0.254678  1
  C  C10  1  0.467899  0.813251  0.256558  1
  C  C11  1  0.788657  0.813251  0.256558  1
  C  C12  1  0.211342  0.186749  0.743443  1
  C  C13  1  0.532100  0.186749  0.743443  1
  C  C14  1  0.211839  0.685300  0.745320  1
  C  C15  1  0.533483  0.685300  0.745320  1
