# generated using pymatgen
data_Sc7V9O24
_symmetry_space_group_name_H-M   'P 1'
_cell_length_a   8.38269792
_cell_length_b   8.46818774
_cell_length_c   8.46754290
_cell_angle_alpha   109.53931905
_cell_angle_beta   109.50327251
_cell_angle_gamma   109.60011476
_symmetry_Int_Tables_number   1
_chemical_formula_structural   Sc7V9O24
_chemical_formula_sum   'Sc7 V9 O24'
_cell_volume   461.39814529
_cell_formula_units_Z   1
loop_
 _symmetry_equiv_pos_site_id
 _symmetry_equiv_pos_as_xyz
  1  'x, y, z'
loop_
 _atom_site_type_symbol
 _atom_site_label
 _atom_site_symmetry_multiplicity
 _atom_site_fract_x
 _atom_site_fract_y
 _atom_site_fract_z
 _atom_site_occupancy
  Sc  Sc0  1  0.749091  0.285419  0.534810  1
  Sc  Sc1  1  0.540493  0.749406  0.287922  1
  Sc  Sc2  1  0.249274  0.712824  0.462580  1
  Sc  Sc3  1  0.250057  0.214621  0.964048  1
  Sc  Sc4  1  0.212295  0.965424  0.251696  1
  Sc  Sc5  1  0.289080  0.535340  0.749739  1
  Sc  Sc6  1  0.034196  0.750927  0.787895  1
  V  V7  1  0.503744  0.002592  0.997199  1
  V  V8  1  0.961954  0.248101  0.211273  1
  V  V9  1  0.782954  0.033836  0.751763  1
  V  V10  1  0.715709  0.465875  0.246613  1
  V  V11  1  0.749968  0.788793  0.037342  1
  V  V12  1  0.501843  0.500468  0.500336  1
  V  V13  1  0.998545  0.998905  0.501072  1
  V  V14  1  0.467553  0.252436  0.718325  1
  V  V15  1  0.994789  0.497553  0.999815  1
  O  O16  1  0.733324  0.223845  0.263887  1
  O  O17  1  0.771727  0.038437  0.494551  1
  O  O18  1  0.959502  0.504833  0.231051  1
  O  O19  1  0.282565  0.011509  0.048824  1
  O  O20  1  0.462069  0.235311  0.458136  1
  O  O21  1  0.785873  0.729272  0.270903  1
  O  O22  1  0.456019  0.464126  0.231102  1
  O  O23  1  0.040701  0.276096  0.012168  1
  O  O24  1  0.994825  0.039970  0.263355  1
  O  O25  1  0.501579  0.767557  0.038266  1
  O  O26  1  0.770500  0.544946  0.527210  1
  O  O27  1  0.722867  0.255398  0.769907  1
  O  O28  1  0.225786  0.449059  0.459329  1
  O  O29  1  0.271091  0.736500  0.225228  1
  O  O30  1  0.514690  0.244778  0.966341  1
  O  O31  1  0.983242  0.955443  0.730201  1
  O  O32  1  0.551179  0.534086  0.774771  1
  O  O33  1  0.949370  0.722799  0.991575  1
  O  O34  1  0.221134  0.266878  0.729897  1
  O  O35  1  0.538811  0.769568  0.547357  1
  O  O36  1  0.035977  0.490745  0.771225  1
  O  O37  1  0.720789  0.989936  0.946733  1
  O  O38  1  0.237892  0.970286  0.514891  1
  O  O39  1  0.266948  0.776105  0.730665  1
