# generated using pymatgen
data_Sc44Os7
_symmetry_space_group_name_H-M   'P 1'
_cell_length_a   14.68609411
_cell_length_b   14.68609374
_cell_length_c   14.68609428
_cell_angle_alpha   60.00000103
_cell_angle_beta   60.00000187
_cell_angle_gamma   59.99999910
_symmetry_Int_Tables_number   1
_chemical_formula_structural   Sc44Os7
_chemical_formula_sum   'Sc88 Os14'
_cell_volume   2239.77257903
_cell_formula_units_Z   2
loop_
 _symmetry_equiv_pos_site_id
 _symmetry_equiv_pos_as_xyz
  1  'x, y, z'
loop_
 _atom_site_type_symbol
 _atom_site_label
 _atom_site_symmetry_multiplicity
 _atom_site_fract_x
 _atom_site_fract_y
 _atom_site_fract_z
 _atom_site_occupancy
  Sc  Sc0  1  0.424878  0.788623  0.997877  1
  Sc  Sc1  1  0.163720  0.163720  0.508841  1
  Sc  Sc2  1  0.514555  0.091735  0.879156  1
  Sc  Sc3  1  0.856933  0.643067  0.643067  1
  Sc  Sc4  1  0.643067  0.856933  0.856933  1
  Sc  Sc5  1  0.308953  0.073140  0.308953  1
  Sc  Sc6  1  0.879156  0.514555  0.514555  1
  Sc  Sc7  1  0.788623  0.788623  0.997877  1
  Sc  Sc8  1  0.091735  0.514555  0.879156  1
  Sc  Sc9  1  0.021508  0.298178  0.021508  1
  Sc  Sc10  1  0.284760  0.893391  0.537089  1
  Sc  Sc11  1  0.440523  0.440523  0.440523  1
  Sc  Sc12  1  0.021508  0.658806  0.298178  1
  Sc  Sc13  1  0.658806  0.298178  0.021508  1
  Sc  Sc14  1  0.537089  0.893391  0.284760  1
  Sc  Sc15  1  0.663391  0.223150  0.663391  1
  Sc  Sc16  1  0.189268  0.189268  0.810732  1
  Sc  Sc17  1  0.997877  0.424878  0.788623  1
  Sc  Sc18  1  0.440523  0.678432  0.440523  1
  Sc  Sc19  1  0.663391  0.663391  0.223150  1
  Sc  Sc20  1  0.021508  0.021508  0.658806  1
  Sc  Sc21  1  0.298178  0.021508  0.658806  1
  Sc  Sc22  1  0.091735  0.514555  0.514555  1
  Sc  Sc23  1  0.163720  0.163720  0.163720  1
  Sc  Sc24  1  0.189268  0.810732  0.189268  1
  Sc  Sc25  1  0.658806  0.021508  0.021508  1
  Sc  Sc26  1  0.810732  0.189268  0.810732  1
  Sc  Sc27  1  0.788623  0.997877  0.788623  1
  Sc  Sc28  1  0.643067  0.856933  0.643067  1
  Sc  Sc29  1  0.537089  0.284760  0.893391  1
  Sc  Sc30  1  0.856933  0.643067  0.856933  1
  Sc  Sc31  1  0.893391  0.284760  0.284760  1
  Sc  Sc32  1  0.284760  0.537089  0.284760  1
  Sc  Sc33  1  0.308953  0.308953  0.073140  1
  Sc  Sc34  1  0.879156  0.514555  0.091735  1
  Sc  Sc35  1  0.424878  0.788623  0.788623  1
  Sc  Sc36  1  0.514555  0.091735  0.514555  1
  Sc  Sc37  1  0.223150  0.663391  0.450067  1
  Sc  Sc38  1  0.810732  0.810732  0.189268  1
  Sc  Sc39  1  0.298178  0.021508  0.021508  1
  Sc  Sc40  1  0.514555  0.879156  0.514555  1
  Sc  Sc41  1  0.788623  0.424878  0.788623  1
  Sc  Sc42  1  0.056963  0.829111  0.056963  1
  Sc  Sc43  1  0.663391  0.450067  0.223150  1
  Sc  Sc44  1  0.514555  0.879156  0.091735  1
  Sc  Sc45  1  0.440523  0.440523  0.678432  1
  Sc  Sc46  1  0.663391  0.223150  0.450067  1
  Sc  Sc47  1  0.537089  0.284760  0.284760  1
  Sc  Sc48  1  0.788623  0.788623  0.424878  1
  Sc  Sc49  1  0.073140  0.308953  0.308953  1
  Sc  Sc50  1  0.788623  0.997877  0.424878  1
  Sc  Sc51  1  0.997877  0.788623  0.424878  1
  Sc  Sc52  1  0.514555  0.514555  0.091735  1
  Sc  Sc53  1  0.284760  0.537089  0.893391  1
  Sc  Sc54  1  0.450067  0.663391  0.663391  1
  Sc  Sc55  1  0.284760  0.284760  0.537089  1
  Sc  Sc56  1  0.879156  0.091735  0.514555  1
  Sc  Sc57  1  0.508841  0.163720  0.163720  1
  Sc  Sc58  1  0.856933  0.856933  0.643067  1
  Sc  Sc59  1  0.284760  0.284760  0.893391  1
  Sc  Sc60  1  0.021508  0.658806  0.021508  1
  Sc  Sc61  1  0.223150  0.663391  0.663391  1
  Sc  Sc62  1  0.189268  0.810732  0.810732  1
  Sc  Sc63  1  0.223150  0.450067  0.663391  1
  Sc  Sc64  1  0.893391  0.284760  0.537089  1
  Sc  Sc65  1  0.829111  0.056963  0.056963  1
  Sc  Sc66  1  0.678432  0.440523  0.440523  1
  Sc  Sc67  1  0.514555  0.514555  0.879156  1
  Sc  Sc68  1  0.663391  0.450067  0.663391  1
  Sc  Sc69  1  0.056963  0.056963  0.056963  1
  Sc  Sc70  1  0.810732  0.189268  0.189268  1
  Sc  Sc71  1  0.658806  0.021508  0.298178  1
  Sc  Sc72  1  0.056963  0.056963  0.829111  1
  Sc  Sc73  1  0.663391  0.663391  0.450067  1
  Sc  Sc74  1  0.284760  0.893391  0.284760  1
  Sc  Sc75  1  0.450067  0.663391  0.223150  1
  Sc  Sc76  1  0.893391  0.537089  0.284760  1
  Sc  Sc77  1  0.997877  0.788623  0.788623  1
  Sc  Sc78  1  0.424878  0.997877  0.788623  1
  Sc  Sc79  1  0.091735  0.879156  0.514555  1
  Sc  Sc80  1  0.021508  0.298178  0.658806  1
  Sc  Sc81  1  0.298178  0.658806  0.021508  1
  Sc  Sc82  1  0.450067  0.223150  0.663391  1
  Sc  Sc83  1  0.021508  0.021508  0.298178  1
  Sc  Sc84  1  0.163720  0.508841  0.163720  1
  Sc  Sc85  1  0.788623  0.424878  0.997877  1
  Sc  Sc86  1  0.308953  0.308953  0.308953  1
  Sc  Sc87  1  0.643067  0.643067  0.856933  1
  Os  Os88  1  0.090331  0.409669  0.090331  1
  Os  Os89  1  0.243247  0.918918  0.918918  1
  Os  Os90  1  0.409669  0.409669  0.090331  1
  Os  Os91  1  0.409669  0.090331  0.409669  1
  Os  Os92  1  0.918918  0.243247  0.918918  1
  Os  Os93  1  0.650439  0.048683  0.650439  1
  Os  Os94  1  0.048683  0.650439  0.650439  1
  Os  Os95  1  0.409669  0.090331  0.090331  1
  Os  Os96  1  0.650439  0.650439  0.048683  1
  Os  Os97  1  0.918918  0.918918  0.243247  1
  Os  Os98  1  0.650439  0.650439  0.650439  1
  Os  Os99  1  0.090331  0.090331  0.409669  1
  Os  Os100  1  0.090331  0.409669  0.409669  1
  Os  Os101  1  0.918918  0.918918  0.918918  1
