# generated using pymatgen
data_Sc2B6Rh
_symmetry_space_group_name_H-M   'P 1'
_cell_length_a   3.46714482
_cell_length_b   8.94306231
_cell_length_c   11.20841144
_cell_angle_alpha   90.00000000
_cell_angle_beta   90.00000000
_cell_angle_gamma   90.00000000
_symmetry_Int_Tables_number   1
_chemical_formula_structural   Sc2B6Rh
_chemical_formula_sum   'Sc8 B24 Rh4'
_cell_volume   347.53800484
_cell_formula_units_Z   4
loop_
 _symmetry_equiv_pos_site_id
 _symmetry_equiv_pos_as_xyz
  1  'x, y, z'
loop_
 _atom_site_type_symbol
 _atom_site_label
 _atom_site_symmetry_multiplicity
 _atom_site_fract_x
 _atom_site_fract_y
 _atom_site_fract_z
 _atom_site_occupancy
  Sc  Sc0  1  -0.000000  0.945329  0.373637  1
  Sc  Sc1  1  0.000000  0.054671  0.626363  1
  Sc  Sc2  1  0.000000  0.554671  0.873637  1
  Sc  Sc3  1  -0.000000  0.182127  0.914423  1
  Sc  Sc4  1  0.000000  0.817873  0.085577  1
  Sc  Sc5  1  0.000000  0.682127  0.585577  1
  Sc  Sc6  1  0.000000  0.317873  0.414423  1
  Sc  Sc7  1  -0.000000  0.445329  0.126363  1
  B  B8  1  0.500000  0.367666  0.818676  1
  B  B9  1  0.500000  0.981138  0.211888  1
  B  B10  1  0.500000  0.554808  0.436586  1
  B  B11  1  0.500000  0.297708  0.238062  1
  B  B12  1  0.500000  0.202292  0.738062  1
  B  B13  1  0.500000  0.102428  0.472230  1
  B  B14  1  0.500000  0.797708  0.261938  1
  B  B15  1  0.500000  0.445192  0.563414  1
  B  B16  1  0.500000  0.245961  0.578166  1
  B  B17  1  0.500000  0.481138  0.288112  1
  B  B18  1  0.500000  0.702292  0.761938  1
  B  B19  1  0.500000  0.754039  0.421834  1
  B  B20  1  0.500000  0.518862  0.711888  1
  B  B21  1  0.500000  0.897572  0.527770  1
  B  B22  1  0.500000  0.054808  0.063414  1
  B  B23  1  0.500000  0.602428  0.027770  1
  B  B24  1  0.500000  0.745961  0.921834  1
  B  B25  1  0.500000  0.018862  0.788112  1
  B  B26  1  0.500000  0.397572  0.972230  1
  B  B27  1  0.500000  0.945192  0.936586  1
  B  B28  1  0.500000  0.632334  0.181324  1
  B  B29  1  0.500000  0.254039  0.078166  1
  B  B30  1  0.500000  0.867666  0.681324  1
  B  B31  1  0.500000  0.132334  0.318676  1
  Rh  Rh32  1  -0.000000  0.142066  0.179677  1
  Rh  Rh33  1  0.000000  0.357934  0.679677  1
  Rh  Rh34  1  0.000000  0.857934  0.820323  1
  Rh  Rh35  1  -0.000000  0.642066  0.320323  1
