# generated using pymatgen
data_Sc4Ti3O12
_symmetry_space_group_name_H-M   'P 1'
_cell_length_a   6.08919941
_cell_length_b   5.92349880
_cell_length_c   12.15852077
_cell_angle_alpha   99.73031819
_cell_angle_beta   99.42346239
_cell_angle_gamma   98.60820185
_symmetry_Int_Tables_number   1
_chemical_formula_structural   Sc4Ti3O12
_chemical_formula_sum   'Sc8 Ti6 O24'
_cell_volume   419.25504004
_cell_formula_units_Z   2
loop_
 _symmetry_equiv_pos_site_id
 _symmetry_equiv_pos_as_xyz
  1  'x, y, z'
loop_
 _atom_site_type_symbol
 _atom_site_label
 _atom_site_symmetry_multiplicity
 _atom_site_fract_x
 _atom_site_fract_y
 _atom_site_fract_z
 _atom_site_occupancy
  Sc  Sc0  1  0.136804  0.614872  0.656771  1
  Sc  Sc1  1  0.385571  0.694583  0.932431  1
  Sc  Sc2  1  0.384062  0.701367  0.433910  1
  Sc  Sc3  1  0.308990  0.135016  0.302110  1
  Sc  Sc4  1  0.614429  0.305417  0.567569  1
  Sc  Sc5  1  0.691010  0.864984  0.197890  1
  Sc  Sc6  1  0.863196  0.385128  0.843229  1
  Sc  Sc7  1  0.615938  0.298633  0.066090  1
  Ti  Ti8  1  0.152912  0.603805  0.162470  1
  Ti  Ti9  1  0.985310  0.989310  0.989766  1
  Ti  Ti10  1  0.339177  0.154148  0.806057  1
  Ti  Ti11  1  0.660823  0.845852  0.693943  1
  Ti  Ti12  1  0.847088  0.396195  0.337530  1
  Ti  Ti13  1  0.014690  0.010690  0.510234  1
  O  O14  1  0.046988  0.689137  0.946167  1
  O  O15  1  0.125884  0.972435  0.660323  1
  O  O16  1  0.029178  0.676725  0.451764  1
  O  O17  1  0.182907  0.403254  0.789831  1
  O  O18  1  0.089471  0.913166  0.154748  1
  O  O19  1  0.307134  0.084511  0.955318  1
  O  O20  1  0.173954  0.430767  0.286512  1
  O  O21  1  0.424628  0.821437  0.785835  1
  O  O22  1  0.313453  0.075363  0.472482  1
  O  O23  1  0.421425  0.583895  0.590656  1
  O  O24  1  0.423861  0.814958  0.288592  1
  O  O25  1  0.578575  0.416105  0.909344  1
  O  O26  1  0.407614  0.578338  0.090480  1
  O  O27  1  0.575372  0.178563  0.714165  1
  O  O28  1  0.592386  0.421662  0.409520  1
  O  O29  1  0.692866  0.915489  0.544682  1
  O  O30  1  0.576139  0.185042  0.211408  1
  O  O31  1  0.817093  0.596746  0.710169  1
  O  O32  1  0.686547  0.924637  0.027518  1
  O  O33  1  0.874116  0.027565  0.839677  1
  O  O34  1  0.826046  0.569233  0.213488  1
  O  O35  1  0.953012  0.310863  0.553833  1
  O  O36  1  0.910529  0.086834  0.345252  1
  O  O37  1  0.970822  0.323275  0.048236  1
