# generated using pymatgen
data_Sm11Y5O24
_symmetry_space_group_name_H-M   'P 1'
_cell_length_a   9.44477946
_cell_length_b   9.45700041
_cell_length_c   9.45740736
_cell_angle_alpha   109.51594511
_cell_angle_beta   109.46911944
_cell_angle_gamma   109.47620587
_symmetry_Int_Tables_number   1
_chemical_formula_structural   Sm11Y5O24
_chemical_formula_sum   'Sm11 Y5 O24'
_cell_volume   649.89012451
_cell_formula_units_Z   1
loop_
 _symmetry_equiv_pos_site_id
 _symmetry_equiv_pos_as_xyz
  1  'x, y, z'
loop_
 _atom_site_type_symbol
 _atom_site_label
 _atom_site_symmetry_multiplicity
 _atom_site_fract_x
 _atom_site_fract_y
 _atom_site_fract_z
 _atom_site_occupancy
  Sm  Sm0  1  0.502839  0.001806  0.997967  1
  Sm  Sm1  1  0.749260  0.280503  0.530620  1
  Sm  Sm2  1  0.993970  0.497898  0.999739  1
  Sm  Sm3  1  0.502242  0.501478  0.502121  1
  Sm  Sm4  1  0.999585  0.999500  0.499389  1
  Sm  Sm5  1  0.533331  0.749803  0.282114  1
  Sm  Sm6  1  0.249250  0.718015  0.468053  1
  Sm  Sm7  1  0.250083  0.219238  0.968449  1
  Sm  Sm8  1  0.282676  0.531197  0.749778  1
  Sm  Sm9  1  0.216893  0.969806  0.250667  1
  Sm  Sm10  1  0.029583  0.750143  0.781334  1
  Y  Y11  1  0.965768  0.248782  0.215615  1
  Y  Y12  1  0.781624  0.032519  0.751379  1
  Y  Y13  1  0.717942  0.467092  0.247845  1
  Y  Y14  1  0.750120  0.782994  0.032311  1
  Y  Y15  1  0.469532  0.251608  0.719660  1
  O  O16  1  0.760640  0.029804  0.492050  1
  O  O17  1  0.742713  0.230867  0.268928  1
  O  O18  1  0.966013  0.507373  0.240191  1
  O  O19  1  0.273233  0.013102  0.042353  1
  O  O20  1  0.470131  0.231780  0.463683  1
  O  O21  1  0.772351  0.725206  0.255000  1
  O  O22  1  0.462370  0.470217  0.231123  1
  O  O23  1  0.037820  0.269153  0.011682  1
  O  O24  1  0.005243  0.041512  0.268087  1
  O  O25  1  0.494617  0.762611  0.030926  1
  O  O26  1  0.770770  0.540507  0.524291  1
  O  O27  1  0.724091  0.253525  0.769701  1
  O  O28  1  0.226189  0.453744  0.465318  1
  O  O29  1  0.268680  0.739333  0.227422  1
  O  O30  1  0.984238  0.959414  0.729356  1
  O  O31  1  0.515762  0.245222  0.970060  1
  O  O32  1  0.546165  0.530851  0.774951  1
  O  O33  1  0.954138  0.729234  0.988461  1
  O  O34  1  0.533005  0.773857  0.546215  1
  O  O35  1  0.232170  0.269479  0.739243  1
  O  O36  1  0.732691  0.988212  0.957504  1
  O  O37  1  0.028968  0.487506  0.761029  1
  O  O38  1  0.244281  0.974226  0.515433  1
  O  O39  1  0.259020  0.770883  0.729953  1
