# generated using pymatgen
data_Sm3Fe5O12
_symmetry_space_group_name_H-M   'P 1'
_cell_length_a   10.99193153
_cell_length_b   10.99193153
_cell_length_c   10.99193153
_cell_angle_alpha   109.47122066
_cell_angle_beta   109.47122065
_cell_angle_gamma   109.47122060
_symmetry_Int_Tables_number   1
_chemical_formula_structural   Sm3Fe5O12
_chemical_formula_sum   'Sm12 Fe20 O48'
_cell_volume   1022.35129743
_cell_formula_units_Z   4
loop_
 _symmetry_equiv_pos_site_id
 _symmetry_equiv_pos_as_xyz
  1  'x, y, z'
loop_
 _atom_site_type_symbol
 _atom_site_label
 _atom_site_symmetry_multiplicity
 _atom_site_fract_x
 _atom_site_fract_y
 _atom_site_fract_z
 _atom_site_occupancy
  O  O0  1  0.794410  0.417161  0.822334  1
  O  O1  1  0.082839  0.877249  0.405173  1
  O  O2  1  0.677666  0.094827  0.972076  1
  O  O3  1  0.705590  0.527924  0.622751  1
  O  O4  1  0.705590  0.677666  0.082839  1
  O  O5  1  0.527924  0.622751  0.705590  1
  O  O6  1  0.094827  0.622751  0.417161  1
  O  O7  1  0.622751  0.705590  0.527924  1
  O  O8  1  0.405173  0.822334  0.527924  1
  O  O9  1  0.877249  0.972076  0.794410  1
  O  O10  1  0.972076  0.794410  0.877249  1
  O  O11  1  0.082839  0.705590  0.677666  1
  O  O12  1  0.622751  0.417161  0.094827  1
  O  O13  1  0.527924  0.405173  0.822334  1
  O  O14  1  0.677666  0.082839  0.705590  1
  O  O15  1  0.417161  0.094827  0.622751  1
  O  O16  1  0.822334  0.527924  0.405173  1
  O  O17  1  0.405173  0.082839  0.877249  1
  O  O18  1  0.094827  0.972076  0.677666  1
  O  O19  1  0.594827  0.177666  0.472076  1
  O  O20  1  0.972076  0.677666  0.094827  1
  O  O21  1  0.822334  0.794410  0.417161  1
  O  O22  1  0.877249  0.405173  0.082839  1
  O  O23  1  0.794410  0.877249  0.972076  1
  O  O24  1  0.205590  0.582839  0.177666  1
  O  O25  1  0.917161  0.122751  0.594827  1
  O  O26  1  0.322334  0.905173  0.027924  1
  O  O27  1  0.294410  0.472076  0.377249  1
  O  O28  1  0.294410  0.322334  0.917161  1
  O  O29  1  0.472076  0.377249  0.294410  1
  O  O30  1  0.905173  0.377249  0.582839  1
  O  O31  1  0.377249  0.294410  0.472076  1
  O  O32  1  0.205590  0.122751  0.027924  1
  O  O33  1  0.122751  0.594827  0.917161  1
  O  O34  1  0.177666  0.205590  0.582839  1
  O  O35  1  0.582839  0.177666  0.205590  1
  O  O36  1  0.027924  0.322334  0.905173  1
  O  O37  1  0.905173  0.027924  0.322334  1
  O  O38  1  0.594827  0.917161  0.122751  1
  O  O39  1  0.177666  0.472076  0.594827  1
  O  O40  1  0.582839  0.905173  0.377249  1
  O  O41  1  0.322334  0.917161  0.294410  1
  O  O42  1  0.472076  0.594827  0.177666  1
  O  O43  1  0.377249  0.582839  0.905173  1
  O  O44  1  0.917161  0.294410  0.322334  1
  O  O45  1  0.027924  0.205590  0.122751  1
  O  O46  1  0.122751  0.027924  0.205590  1
  O  O47  1  0.417161  0.822334  0.794410  1
  Fe  Fe48  1  0.000000  0.000000  0.000000  1
  Fe  Fe49  1  0.000000  0.500000  0.000000  1
  Fe  Fe50  1  0.000000  0.000000  0.500000  1
  Fe  Fe51  1  0.500000  0.000000  0.000000  1
  Fe  Fe52  1  0.000000  0.500000  0.500000  1
  Fe  Fe53  1  0.500000  0.000000  0.500000  1
  Fe  Fe54  1  0.500000  0.500000  0.000000  1
  Fe  Fe55  1  0.500000  0.500000  0.500000  1
  Fe  Fe56  1  0.250000  0.625000  0.375000  1
  Fe  Fe57  1  0.625000  0.750000  0.375000  1
  Fe  Fe58  1  0.875000  0.250000  0.125000  1
  Fe  Fe59  1  0.125000  0.875000  0.250000  1
  Fe  Fe60  1  0.250000  0.125000  0.875000  1
  Fe  Fe61  1  0.750000  0.875000  0.125000  1
  Fe  Fe62  1  0.375000  0.250000  0.625000  1
  Fe  Fe63  1  0.625000  0.375000  0.250000  1
  Fe  Fe64  1  0.125000  0.750000  0.875000  1
  Fe  Fe65  1  0.875000  0.125000  0.750000  1
  Fe  Fe66  1  0.750000  0.375000  0.625000  1
  Fe  Fe67  1  0.375000  0.625000  0.750000  1
  Sm  Sm68  1  0.250000  0.375000  0.125000  1
  Sm  Sm69  1  0.375000  0.750000  0.125000  1
  Sm  Sm70  1  0.125000  0.250000  0.375000  1
  Sm  Sm71  1  0.375000  0.125000  0.250000  1
  Sm  Sm72  1  0.125000  0.375000  0.750000  1
  Sm  Sm73  1  0.750000  0.125000  0.375000  1
  Sm  Sm74  1  0.750000  0.625000  0.875000  1
  Sm  Sm75  1  0.625000  0.250000  0.875000  1
  Sm  Sm76  1  0.875000  0.750000  0.625000  1
  Sm  Sm77  1  0.625000  0.875000  0.750000  1
  Sm  Sm78  1  0.875000  0.625000  0.250000  1
  Sm  Sm79  1  0.250000  0.875000  0.625000  1
