# generated using pymatgen
data_Sm3NbO7
_symmetry_space_group_name_H-M   'P 1'
_cell_length_a   7.60380019
_cell_length_b   10.83230501
_cell_length_c   7.72281382
_cell_angle_alpha   90.00000000
_cell_angle_beta   90.00000000
_cell_angle_gamma   90.00000000
_symmetry_Int_Tables_number   1
_chemical_formula_structural   Sm3NbO7
_chemical_formula_sum   'Sm12 Nb4 O28'
_cell_volume   636.10255695
_cell_formula_units_Z   4
loop_
 _symmetry_equiv_pos_site_id
 _symmetry_equiv_pos_as_xyz
  1  'x, y, z'
loop_
 _atom_site_type_symbol
 _atom_site_label
 _atom_site_symmetry_multiplicity
 _atom_site_fract_x
 _atom_site_fract_y
 _atom_site_fract_z
 _atom_site_occupancy
  Sm  Sm0  1  0.014755  0.250000  0.798252  1
  Sm  Sm1  1  0.249940  0.522747  0.962722  1
  Sm  Sm2  1  0.249940  0.977253  0.962722  1
  Sm  Sm3  1  0.250060  0.022747  0.462722  1
  Sm  Sm4  1  0.250060  0.477253  0.462722  1
  Sm  Sm5  1  0.485245  0.750000  0.298252  1
  Sm  Sm6  1  0.514755  0.250000  0.701748  1
  Sm  Sm7  1  0.749940  0.522747  0.537278  1
  Sm  Sm8  1  0.749940  0.977253  0.537278  1
  Sm  Sm9  1  0.750060  0.022747  0.037278  1
  Sm  Sm10  1  0.750060  0.477253  0.037278  1
  Sm  Sm11  1  0.985245  0.750000  0.201748  1
  Nb  Nb12  1  0.995748  0.750000  0.746365  1
  Nb  Nb13  1  0.504252  0.250000  0.246365  1
  Nb  Nb14  1  0.495748  0.750000  0.753635  1
  Nb  Nb15  1  0.004252  0.250000  0.253635  1
  O  O16  1  0.036235  0.125758  0.048789  1
  O  O17  1  0.036235  0.374242  0.048789  1
  O  O18  1  0.040841  0.611832  0.591679  1
  O  O19  1  0.040841  0.888168  0.591679  1
  O  O20  1  0.248325  0.250000  0.331798  1
  O  O21  1  0.256885  0.116593  0.731612  1
  O  O22  1  0.256885  0.383407  0.731612  1
  O  O23  1  0.243115  0.616593  0.231612  1
  O  O24  1  0.243115  0.883407  0.231612  1
  O  O25  1  0.251675  0.750000  0.831798  1
  O  O26  1  0.459159  0.111832  0.091679  1
  O  O27  1  0.459159  0.388168  0.091679  1
  O  O28  1  0.463765  0.625758  0.548790  1
  O  O29  1  0.463765  0.874242  0.548790  1
  O  O30  1  0.536235  0.125758  0.451211  1
  O  O31  1  0.536235  0.374242  0.451211  1
  O  O32  1  0.540841  0.611832  0.908321  1
  O  O33  1  0.540841  0.888168  0.908321  1
  O  O34  1  0.748325  0.250000  0.168202  1
  O  O35  1  0.756885  0.116593  0.768388  1
  O  O36  1  0.756885  0.383407  0.768388  1
  O  O37  1  0.743115  0.616593  0.268388  1
  O  O38  1  0.743115  0.883407  0.268388  1
  O  O39  1  0.751675  0.750000  0.668202  1
  O  O40  1  0.959159  0.111832  0.408321  1
  O  O41  1  0.959159  0.388168  0.408321  1
  O  O42  1  0.963765  0.625758  0.951210  1
  O  O43  1  0.963765  0.874242  0.951210  1
