# generated using pymatgen
data_Sm3ReO8
_symmetry_space_group_name_H-M   'P 1'
_cell_length_a   6.15026403
_cell_length_b   7.41988070
_cell_length_c   14.00502937
_cell_angle_alpha   98.57207314
_cell_angle_beta   90.00000000
_cell_angle_gamma   90.00000000
_symmetry_Int_Tables_number   1
_chemical_formula_structural   Sm3ReO8
_chemical_formula_sum   'Sm12 Re4 O32'
_cell_volume   631.96927964
_cell_formula_units_Z   4
loop_
 _symmetry_equiv_pos_site_id
 _symmetry_equiv_pos_as_xyz
  1  'x, y, z'
loop_
 _atom_site_type_symbol
 _atom_site_label
 _atom_site_symmetry_multiplicity
 _atom_site_fract_x
 _atom_site_fract_y
 _atom_site_fract_z
 _atom_site_occupancy
  O  O0  1  0.802591  0.546911  0.520297  1
  O  O1  1  0.302591  0.953089  0.979703  1
  O  O2  1  0.197409  0.453089  0.479703  1
  O  O3  1  0.697409  0.046911  0.020297  1
  O  O4  1  0.043024  0.845125  0.596366  1
  O  O5  1  0.543024  0.654875  0.903634  1
  O  O6  1  0.956976  0.154875  0.403634  1
  O  O7  1  0.456976  0.345125  0.096366  1
  O  O8  1  0.650051  0.999629  0.669024  1
  O  O9  1  0.150051  0.500371  0.830976  1
  O  O10  1  0.349949  0.000371  0.330976  1
  O  O11  1  0.849949  0.499629  0.169024  1
  O  O12  1  0.449949  0.710524  0.588823  1
  O  O13  1  0.949949  0.789476  0.911177  1
  O  O14  1  0.550051  0.289476  0.411177  1
  O  O15  1  0.050051  0.210524  0.088823  1
  O  O16  1  0.530343  0.642183  0.327041  1
  O  O17  1  0.030343  0.857817  0.172959  1
  O  O18  1  0.469657  0.357817  0.672959  1
  O  O19  1  0.969657  0.142183  0.827041  1
  O  O20  1  0.530364  0.806640  0.159396  1
  O  O21  1  0.030364  0.693360  0.340604  1
  O  O22  1  0.469636  0.193360  0.840604  1
  O  O23  1  0.969636  0.306640  0.659396  1
  O  O24  1  0.802206  0.392578  0.982056  1
  O  O25  1  0.302206  0.107422  0.517944  1
  O  O26  1  0.197794  0.607422  0.017944  1
  O  O27  1  0.697794  0.892578  0.482056  1
  O  O28  1  0.705353  0.181422  0.211047  1
  O  O29  1  0.205353  0.318578  0.288953  1
  O  O30  1  0.294647  0.818578  0.788953  1
  O  O31  1  0.794647  0.681422  0.711047  1
  Sm  Sm32  1  0.311927  0.061811  0.167047  1
  Sm  Sm33  1  0.811927  0.438189  0.332953  1
  Sm  Sm34  1  0.688073  0.938189  0.832953  1
  Sm  Sm35  1  0.188073  0.561811  0.667047  1
  Sm  Sm36  1  0.699986  0.215094  0.554194  1
  Sm  Sm37  1  0.199986  0.284906  0.945806  1
  Sm  Sm38  1  0.300014  0.784906  0.445806  1
  Sm  Sm39  1  0.800014  0.715094  0.054194  1
  Sm  Sm40  1  0.738589  0.394004  0.798599  1
  Sm  Sm41  1  0.238589  0.105996  0.701401  1
  Sm  Sm42  1  0.261411  0.605996  0.201401  1
  Sm  Sm43  1  0.761411  0.894004  0.298599  1
  Re  Re44  1  0.754381  0.269629  0.090494  1
  Re  Re45  1  0.254381  0.230371  0.409506  1
  Re  Re46  1  0.245619  0.730371  0.909506  1
  Re  Re47  1  0.745619  0.769629  0.590494  1
