# generated using pymatgen
data_Sm4Au2O9
_symmetry_space_group_name_H-M   'P 1'
_cell_length_a   6.10067948
_cell_length_b   11.95746856
_cell_length_c   11.94805464
_cell_angle_alpha   90.00000000
_cell_angle_beta   90.00000000
_cell_angle_gamma   90.00000000
_symmetry_Int_Tables_number   1
_chemical_formula_structural   Sm4Au2O9
_chemical_formula_sum   'Sm16 Au8 O36'
_cell_volume   871.59485132
_cell_formula_units_Z   4
loop_
 _symmetry_equiv_pos_site_id
 _symmetry_equiv_pos_as_xyz
  1  'x, y, z'
loop_
 _atom_site_type_symbol
 _atom_site_label
 _atom_site_symmetry_multiplicity
 _atom_site_fract_x
 _atom_site_fract_y
 _atom_site_fract_z
 _atom_site_occupancy
  O  O0  1  0.936718  0.445499  0.386364  1
  O  O1  1  0.936718  0.054501  0.613636  1
  O  O2  1  0.563282  0.945499  0.113636  1
  O  O3  1  0.563282  0.554501  0.886364  1
  O  O4  1  0.063282  0.554501  0.613636  1
  O  O5  1  0.063282  0.945499  0.386364  1
  O  O6  1  0.436718  0.054501  0.886364  1
  O  O7  1  0.436718  0.445499  0.113636  1
  O  O8  1  0.939565  0.350549  0.163226  1
  O  O9  1  0.939565  0.149451  0.836774  1
  O  O10  1  0.560435  0.850549  0.336774  1
  O  O11  1  0.560435  0.649451  0.663226  1
  O  O12  1  0.060435  0.649451  0.836774  1
  O  O13  1  0.060435  0.850549  0.163226  1
  O  O14  1  0.627263  0.159417  0.196526  1
  O  O15  1  0.439565  0.149451  0.663226  1
  O  O16  1  0.611571  0.088797  0.423922  1
  O  O17  1  0.611571  0.411203  0.576078  1
  O  O18  1  0.888429  0.588797  0.076078  1
  O  O19  1  0.888429  0.911203  0.923922  1
  O  O20  1  0.388429  0.911203  0.576078  1
  O  O21  1  0.388429  0.588797  0.423922  1
  O  O22  1  0.111571  0.411203  0.923922  1
  O  O23  1  0.111571  0.088797  0.076078  1
  O  O24  1  0.023432  0.250000  0.500000  1
  O  O25  1  0.476568  0.750000  0.000000  1
  O  O26  1  0.976568  0.750000  0.500000  1
  O  O27  1  0.523432  0.250000  0.000000  1
  O  O28  1  0.127263  0.159417  0.303474  1
  O  O29  1  0.127263  0.340583  0.696526  1
  O  O30  1  0.372737  0.659417  0.196526  1
  O  O31  1  0.372737  0.840583  0.803474  1
  O  O32  1  0.872737  0.840583  0.696526  1
  O  O33  1  0.872737  0.659417  0.303474  1
  O  O34  1  0.627263  0.340583  0.803474  1
  O  O35  1  0.439565  0.350549  0.336774  1
  Sm  Sm36  1  0.741305  0.089890  0.011286  1
  Sm  Sm37  1  0.741305  0.410110  0.988714  1
  Sm  Sm38  1  0.758695  0.589890  0.488714  1
  Sm  Sm39  1  0.758695  0.910110  0.511286  1
  Sm  Sm40  1  0.258695  0.910110  0.988714  1
  Sm  Sm41  1  0.258695  0.589890  0.011286  1
  Sm  Sm42  1  0.241305  0.410110  0.511286  1
  Sm  Sm43  1  0.241305  0.089890  0.488714  1
  Sm  Sm44  1  0.803833  0.264002  0.340570  1
  Sm  Sm45  1  0.803833  0.235998  0.659430  1
  Sm  Sm46  1  0.696167  0.764002  0.159430  1
  Sm  Sm47  1  0.696167  0.735998  0.840570  1
  Sm  Sm48  1  0.196167  0.735998  0.659430  1
  Sm  Sm49  1  0.196167  0.764002  0.340570  1
  Sm  Sm50  1  0.303833  0.235998  0.840570  1
  Sm  Sm51  1  0.303833  0.264002  0.159430  1
  Au  Au52  1  0.580272  0.010690  0.271312  1
  Au  Au53  1  0.580272  0.489310  0.728688  1
  Au  Au54  1  0.919728  0.510690  0.228688  1
  Au  Au55  1  0.919728  0.989310  0.771312  1
  Au  Au56  1  0.419728  0.989310  0.728688  1
  Au  Au57  1  0.419728  0.510690  0.271312  1
  Au  Au58  1  0.080272  0.489310  0.771312  1
  Au  Au59  1  0.080272  0.010690  0.228688  1
