# generated using pymatgen
data_Sm4Mo4O11
_symmetry_space_group_name_H-M   'P 1'
_cell_length_a   6.07845886
_cell_length_b   11.09417290
_cell_length_c   16.47181764
_cell_angle_alpha   90.00000000
_cell_angle_beta   90.00000000
_cell_angle_gamma   90.00000000
_symmetry_Int_Tables_number   1
_chemical_formula_structural   Sm4Mo4O11
_chemical_formula_sum   'Sm16 Mo16 O44'
_cell_volume   1110.78482292
_cell_formula_units_Z   4
loop_
 _symmetry_equiv_pos_site_id
 _symmetry_equiv_pos_as_xyz
  1  'x, y, z'
loop_
 _atom_site_type_symbol
 _atom_site_label
 _atom_site_symmetry_multiplicity
 _atom_site_fract_x
 _atom_site_fract_y
 _atom_site_fract_z
 _atom_site_occupancy
  O  O0  1  0.246538  0.000000  0.000000  1
  O  O1  1  0.753463  0.500000  0.500000  1
  O  O2  1  0.753463  0.000000  0.000000  1
  O  O3  1  0.246538  0.500000  0.500000  1
  O  O4  1  0.000000  0.233887  0.521841  1
  O  O5  1  0.000000  0.766113  0.478159  1
  O  O6  1  0.000000  0.733887  0.978159  1
  O  O7  1  0.000000  0.266113  0.021841  1
  O  O8  1  0.000000  0.045163  0.655725  1
  O  O9  1  0.000000  0.954837  0.344275  1
  O  O10  1  0.000000  0.545163  0.844275  1
  O  O11  1  0.000000  0.454837  0.155725  1
  O  O12  1  0.499999  0.229512  0.522254  1
  O  O13  1  0.499999  0.770488  0.477746  1
  O  O14  1  0.499999  0.729512  0.977746  1
  O  O15  1  0.499999  0.270488  0.022254  1
  O  O16  1  0.499999  0.050373  0.654819  1
  O  O17  1  0.499999  0.949627  0.345181  1
  O  O18  1  0.764049  0.308377  0.860436  1
  O  O19  1  0.499999  0.449627  0.154819  1
  O  O20  1  0.249854  0.962072  0.172686  1
  O  O21  1  0.249854  0.037928  0.827313  1
  O  O22  1  0.750146  0.462072  0.327313  1
  O  O23  1  0.750146  0.537928  0.672686  1
  O  O24  1  0.750146  0.037928  0.827313  1
  O  O25  1  0.750146  0.962072  0.172686  1
  O  O26  1  0.249854  0.537928  0.672686  1
  O  O27  1  0.249854  0.462072  0.327313  1
  O  O28  1  0.235952  0.691623  0.139564  1
  O  O29  1  0.235952  0.308377  0.860436  1
  O  O30  1  0.764049  0.191623  0.360436  1
  O  O31  1  0.764049  0.808377  0.639564  1
  O  O32  1  0.262696  0.223040  0.176394  1
  O  O33  1  0.262696  0.776960  0.823606  1
  O  O34  1  0.737303  0.723040  0.323605  1
  O  O35  1  0.737303  0.276960  0.676394  1
  O  O36  1  0.737303  0.776960  0.823606  1
  O  O37  1  0.737303  0.223040  0.176394  1
  O  O38  1  0.262696  0.276960  0.676394  1
  O  O39  1  0.262696  0.723040  0.323605  1
  O  O40  1  0.235952  0.191623  0.360436  1
  O  O41  1  0.235952  0.808377  0.639564  1
  O  O42  1  0.764049  0.691623  0.139564  1
  O  O43  1  0.499999  0.550373  0.845181  1
  Mo  Mo44  1  0.000000  0.908167  0.565911  1
  Mo  Mo45  1  0.000000  0.091834  0.434089  1
  Mo  Mo46  1  0.000000  0.408166  0.934089  1
  Mo  Mo47  1  0.000000  0.591834  0.065911  1
  Mo  Mo48  1  0.499999  0.894411  0.577352  1
  Mo  Mo49  1  0.499999  0.105589  0.422648  1
  Mo  Mo50  1  0.499999  0.394411  0.922648  1
  Mo  Mo51  1  0.499999  0.605589  0.077352  1
  Mo  Mo52  1  0.247402  0.858612  0.409985  1
  Mo  Mo53  1  0.247402  0.141388  0.590016  1
  Mo  Mo54  1  0.752599  0.358612  0.090015  1
  Mo  Mo55  1  0.752599  0.641388  0.909984  1
  Mo  Mo56  1  0.752599  0.141388  0.590016  1
  Mo  Mo57  1  0.752599  0.858612  0.409985  1
  Mo  Mo58  1  0.247402  0.641388  0.909984  1
  Mo  Mo59  1  0.247402  0.358612  0.090015  1
  Sm  Sm60  1  0.000000  0.613928  0.578026  1
  Sm  Sm61  1  0.000000  0.386072  0.421975  1
  Sm  Sm62  1  0.000000  0.113928  0.921975  1
  Sm  Sm63  1  0.000000  0.886072  0.078025  1
  Sm  Sm64  1  0.000000  0.401531  0.736655  1
  Sm  Sm65  1  0.000000  0.598469  0.263345  1
  Sm  Sm66  1  0.000000  0.901531  0.763345  1
  Sm  Sm67  1  0.000000  0.098469  0.236655  1
  Sm  Sm68  1  0.499999  0.420790  0.598538  1
  Sm  Sm69  1  0.499999  0.579210  0.401462  1
  Sm  Sm70  1  0.499999  0.920790  0.901462  1
  Sm  Sm71  1  0.499999  0.079210  0.098538  1
  Sm  Sm72  1  0.499999  0.180799  0.774949  1
  Sm  Sm73  1  0.499999  0.819201  0.225051  1
  Sm  Sm74  1  0.499999  0.680799  0.725051  1
  Sm  Sm75  1  0.499999  0.319201  0.274949  1
