# generated using pymatgen
data_Sm2Zr2O7
_symmetry_space_group_name_H-M   'P 1'
_cell_length_a   7.60915563
_cell_length_b   7.58181190
_cell_length_c   30.18501824
_cell_angle_alpha   59.84400806
_cell_angle_beta   60.07957275
_cell_angle_gamma   60.11880448
_symmetry_Int_Tables_number   1
_chemical_formula_structural   Sm2Zr2O7
_chemical_formula_sum   'Sm16 Zr16 O56'
_cell_volume   1231.74034185
_cell_formula_units_Z   8
loop_
 _symmetry_equiv_pos_site_id
 _symmetry_equiv_pos_as_xyz
  1  'x, y, z'
loop_
 _atom_site_type_symbol
 _atom_site_label
 _atom_site_symmetry_multiplicity
 _atom_site_fract_x
 _atom_site_fract_y
 _atom_site_fract_z
 _atom_site_occupancy
  Sm  Sm0  1  0.129914  0.101453  0.166796  1
  Sm  Sm1  1  0.646232  0.121662  0.154936  1
  Sm  Sm2  1  0.636870  0.620409  0.030578  1
  Sm  Sm3  1  0.120086  0.148547  0.395704  1
  Sm  Sm4  1  0.646232  0.612361  0.154936  1
  Sm  Sm5  1  0.603768  0.128338  0.407564  1
  Sm  Sm6  1  0.625000  0.625000  0.281250  1
  Sm  Sm7  1  0.603768  0.637639  0.407564  1
  Sm  Sm8  1  0.123433  0.622705  0.657789  1
  Sm  Sm9  1  0.626732  0.125424  0.655817  1
  Sm  Sm10  1  0.613130  0.629591  0.531922  1
  Sm  Sm11  1  0.626732  0.624575  0.655817  1
  Sm  Sm12  1  0.126567  0.627295  0.904711  1
  Sm  Sm13  1  0.623268  0.124576  0.906683  1
  Sm  Sm14  1  0.625000  0.625000  0.781250  1
  Sm  Sm15  1  0.623268  0.625425  0.906683  1
  Zr  Zr16  1  0.128154  0.123639  0.032597  1
  Zr  Zr17  1  0.128154  0.617820  0.032597  1
  Zr  Zr18  1  0.625637  0.118825  0.034178  1
  Zr  Zr19  1  0.125000  0.125000  0.281250  1
  Zr  Zr20  1  0.138292  0.637001  0.146927  1
  Zr  Zr21  1  0.125000  0.625000  0.281250  1
  Zr  Zr22  1  0.625000  0.125000  0.281250  1
  Zr  Zr23  1  0.121846  0.126361  0.529903  1
  Zr  Zr24  1  0.111708  0.612999  0.415573  1
  Zr  Zr25  1  0.126032  0.127219  0.654883  1
  Zr  Zr26  1  0.121846  0.632180  0.529903  1
  Zr  Zr27  1  0.624363  0.131175  0.528322  1
  Zr  Zr28  1  0.125000  0.125000  0.781250  1
  Zr  Zr29  1  0.123968  0.122781  0.907617  1
  Zr  Zr30  1  0.125000  0.625000  0.781250  1
  Zr  Zr31  1  0.625000  0.125000  0.781250  1
  O  O32  1  0.033515  0.026604  0.116788  1
  O  O33  1  0.041735  0.458553  0.010289  1
  O  O34  1  0.033515  0.472729  0.116788  1
  O  O35  1  0.461133  0.037377  0.011411  1
  O  O36  1  0.184202  0.318053  0.197654  1
  O  O37  1  0.489068  0.012031  0.121717  1
  O  O38  1  0.461133  0.455846  0.011411  1
  O  O39  1  0.216257  0.779519  0.056177  1
  O  O40  1  0.065798  0.931947  0.364846  1
  O  O41  1  0.073847  0.340927  0.311075  1
  O  O42  1  0.184202  0.707130  0.197654  1
  O  O43  1  0.065798  0.542870  0.364846  1
  O  O44  1  0.792708  0.214663  0.051956  1
  O  O45  1  0.463650  0.013940  0.261910  1
  O  O46  1  0.499961  0.507221  0.121399  1
  O  O47  1  0.216485  0.223396  0.445712  1
  O  O48  1  0.492104  0.023061  0.365443  1
  O  O49  1  0.463650  0.474769  0.261910  1
  O  O50  1  0.176153  0.909073  0.251425  1
  O  O51  1  0.792708  0.784803  0.051956  1
  O  O52  1  0.757896  0.226939  0.197057  1
  O  O53  1  0.033664  0.042592  0.614897  1
  O  O54  1  0.033743  0.470481  0.506323  1
  O  O55  1  0.216485  0.777271  0.445712  1
  O  O56  1  0.033664  0.464159  0.614897  1
  O  O57  1  0.786350  0.236060  0.300590  1
  O  O58  1  0.792266  0.731215  0.186327  1
  O  O59  1  0.457292  0.035337  0.510544  1
  O  O60  1  0.457734  0.518785  0.376173  1
  O  O61  1  0.210546  0.213166  0.696704  1
  O  O62  1  0.208265  0.791447  0.552211  1
  O  O63  1  0.457292  0.465197  0.510544  1
  O  O64  1  0.459769  0.043085  0.613515  1
  O  O65  1  0.786350  0.775231  0.300590  1
  O  O66  1  0.039454  0.036834  0.865796  1
  O  O67  1  0.760932  0.237969  0.440783  1
  O  O68  1  0.038094  0.462854  0.759050  1
  O  O69  1  0.210546  0.789471  0.696704  1
  O  O70  1  0.039454  0.460529  0.865796  1
  O  O71  1  0.788867  0.212623  0.551089  1
  O  O72  1  0.750039  0.742779  0.441101  1
  O  O73  1  0.461487  0.038232  0.759332  1
  O  O74  1  0.496369  0.499149  0.626334  1
  O  O75  1  0.216336  0.207408  0.947603  1
  O  O76  1  0.461653  0.037816  0.865678  1
  O  O77  1  0.461487  0.462953  0.759332  1
  O  O78  1  0.211906  0.787146  0.803450  1
  O  O79  1  0.788867  0.794154  0.551089  1
  O  O80  1  0.788347  0.212184  0.696822  1
  O  O81  1  0.216336  0.785841  0.947603  1
  O  O82  1  0.788513  0.211768  0.803168  1
  O  O83  1  0.749906  0.750514  0.687267  1
  O  O84  1  0.500094  0.499486  0.875233  1
  O  O85  1  0.788513  0.787047  0.803168  1
  O  O86  1  0.790231  0.206915  0.948985  1
  O  O87  1  0.753631  0.750851  0.936166  1
