# generated using pymatgen
data_SmMn4(CuO4)3
_symmetry_space_group_name_H-M   'P 1'
_cell_length_a   6.44109414
_cell_length_b   6.44109753
_cell_length_c   6.44111777
_cell_angle_alpha   109.45952148
_cell_angle_beta   109.48470333
_cell_angle_gamma   109.47011575
_symmetry_Int_Tables_number   1
_chemical_formula_structural   SmMn4(CuO4)3
_chemical_formula_sum   'Sm1 Mn4 Cu3 O12'
_cell_volume   205.70991146
_cell_formula_units_Z   1
loop_
 _symmetry_equiv_pos_site_id
 _symmetry_equiv_pos_as_xyz
  1  'x, y, z'
loop_
 _atom_site_type_symbol
 _atom_site_label
 _atom_site_symmetry_multiplicity
 _atom_site_fract_x
 _atom_site_fract_y
 _atom_site_fract_z
 _atom_site_occupancy
  Sm  Sm0  1  0.000000  0.999999  0.999998  1
  Mn  Mn1  1  0.999998  0.000004  0.499997  1
  Mn  Mn2  1  0.499998  0.999996  1.000000  1
  Mn  Mn3  1  0.500001  0.500001  0.499992  1
  Mn  Mn4  1  0.999996  0.500001  0.000004  1
  Cu  Cu5  1  0.500001  0.000001  0.500003  1
  Cu  Cu6  1  0.500000  0.499999  1.000000  1
  Cu  Cu7  1  0.000001  0.500001  0.500002  1
  O  O8  1  0.474752  0.170265  0.304486  1
  O  O9  1  0.695341  0.865521  0.170179  1
  O  O10  1  0.170201  0.304582  0.474778  1
  O  O11  1  0.134221  0.829735  0.304486  1
  O  O12  1  0.829805  0.695423  0.525224  1
  O  O13  1  0.170198  0.695419  0.865619  1
  O  O14  1  0.304657  0.134477  0.829820  1
  O  O15  1  0.525250  0.829733  0.695514  1
  O  O16  1  0.829801  0.304578  0.134384  1
  O  O17  1  0.865780  0.170267  0.695518  1
  O  O18  1  0.695341  0.525162  0.829819  1
  O  O19  1  0.304657  0.474837  0.170178  1
