# generated using pymatgen
data_Co2CuO4
_symmetry_space_group_name_H-M   'P 1'
_cell_length_a   5.86281760
_cell_length_b   5.86631541
_cell_length_c   5.86390407
_cell_angle_alpha   59.99009708
_cell_angle_beta   60.04774693
_cell_angle_gamma   60.00643752
_symmetry_Int_Tables_number   1
_chemical_formula_structural   Co2CuO4
_chemical_formula_sum   'Co4 Cu2 O8'
_cell_volume   142.65556569
_cell_formula_units_Z   2
loop_
 _symmetry_equiv_pos_site_id
 _symmetry_equiv_pos_as_xyz
  1  'x, y, z'
loop_
 _atom_site_type_symbol
 _atom_site_label
 _atom_site_symmetry_multiplicity
 _atom_site_fract_x
 _atom_site_fract_y
 _atom_site_fract_z
 _atom_site_occupancy
  Co  Co0  1  0.125001  0.625000  0.625000  1
  Co  Co1  1  0.625000  0.125001  0.625000  1
  Co  Co2  1  0.625000  0.625000  0.125001  1
  Co  Co3  1  0.624999  0.624999  0.624999  1
  Cu  Cu4  1  0.000026  0.000021  0.000012  1
  Cu  Cu5  1  0.249973  0.249979  0.249988  1
  O  O6  1  0.386228  0.386016  0.386090  1
  O  O7  1  0.386123  0.386232  0.841426  1
  O  O8  1  0.386322  0.841347  0.386398  1
  O  O9  1  0.841576  0.386178  0.386006  1
  O  O10  1  0.408424  0.863822  0.863993  1
  O  O11  1  0.863678  0.408653  0.863603  1
  O  O12  1  0.863877  0.863768  0.408573  1
  O  O13  1  0.863773  0.863984  0.863910  1
