# generated using pymatgen
data_SmY15O24
_symmetry_space_group_name_H-M   'P 1'
_cell_length_a   9.28561251
_cell_length_b   9.29776175
_cell_length_c   9.28561251
_cell_angle_alpha   109.49078938
_cell_angle_beta   109.40569876
_cell_angle_gamma   109.46416337
_symmetry_Int_Tables_number   1
_chemical_formula_structural   SmY15O24
_chemical_formula_sum   'Sm1 Y15 O24'
_cell_volume   617.53452992
_cell_formula_units_Z   1
loop_
 _symmetry_equiv_pos_site_id
 _symmetry_equiv_pos_as_xyz
  1  'x, y, z'
loop_
 _atom_site_type_symbol
 _atom_site_label
 _atom_site_symmetry_multiplicity
 _atom_site_fract_x
 _atom_site_fract_y
 _atom_site_fract_z
 _atom_site_occupancy
  Sm  Sm0  1  0.032214  0.750000  0.782214  1
  Y  Y1  1  0.967081  0.250000  0.217081  1
  Y  Y2  1  0.501253  0.000688  0.000651  1
  Y  Y3  1  0.782389  0.033815  0.749867  1
  Y  Y4  1  0.716052  0.466185  0.248574  1
  Y  Y5  1  0.748866  0.281552  0.531906  1
  Y  Y6  1  0.749691  0.783161  0.033654  1
  Y  Y7  1  0.999963  0.499312  0.000567  1
  Y  Y8  1  0.498533  0.498776  0.498721  1
  Y  Y9  1  0.999946  0.001224  0.499758  1
  Y  Y10  1  0.533077  0.750000  0.283077  1
  Y  Y11  1  0.466869  0.250000  0.716869  1
  Y  Y12  1  0.250493  0.716839  0.466530  1
  Y  Y13  1  0.250354  0.218448  0.967315  1
  Y  Y14  1  0.283884  0.532733  0.750090  1
  Y  Y15  1  0.217357  0.967267  0.251151  1
  O  O16  1  0.759981  0.031451  0.488212  1
  O  O17  1  0.739251  0.227993  0.270505  1
  O  O18  1  0.274979  0.015022  0.046291  1
  O  O19  1  0.968213  0.510713  0.239412  1
  O  O20  1  0.771929  0.729420  0.261602  1
  O  O21  1  0.467663  0.228906  0.458066  1
  O  O22  1  0.456761  0.468549  0.228531  1
  O  O23  1  0.042512  0.272007  0.011258  1
  O  O24  1  0.010776  0.042933  0.271814  1
  O  O25  1  0.765927  0.538200  0.527233  1
  O  O26  1  0.729050  0.261296  0.772041  1
  O  O27  1  0.489171  0.761175  0.032098  1
  O  O28  1  0.228881  0.457067  0.467844  1
  O  O29  1  0.270924  0.738825  0.227997  1
  O  O30  1  0.989032  0.961800  0.727726  1
  O  O31  1  0.510745  0.238704  0.967754  1
  O  O32  1  0.543160  0.532234  0.770879  1
  O  O33  1  0.957397  0.727503  0.993168  1
  O  O34  1  0.532182  0.770580  0.542508  1
  O  O35  1  0.229159  0.271094  0.738757  1
  O  O36  1  0.031270  0.484978  0.759958  1
  O  O37  1  0.728698  0.989287  0.957500  1
  O  O38  1  0.238645  0.967766  0.510926  1
  O  O39  1  0.265665  0.772497  0.729894  1
