# generated using pymatgen
data_Sm10Pd21
_symmetry_space_group_name_H-M   'P 1'
_cell_length_a   5.84901243
_cell_length_b   12.92099530
_cell_length_c   16.73859813
_cell_angle_alpha   90.86754586
_cell_angle_beta   89.97209992
_cell_angle_gamma   103.07655651
_symmetry_Int_Tables_number   1
_chemical_formula_structural   Sm10Pd21
_chemical_formula_sum   'Sm20 Pd42'
_cell_volume   1232.07001043
_cell_formula_units_Z   2
loop_
 _symmetry_equiv_pos_site_id
 _symmetry_equiv_pos_as_xyz
  1  'x, y, z'
loop_
 _atom_site_type_symbol
 _atom_site_label
 _atom_site_symmetry_multiplicity
 _atom_site_fract_x
 _atom_site_fract_y
 _atom_site_fract_z
 _atom_site_occupancy
  Sm  Sm0  1  0.538039  0.068791  0.279651  1
  Sm  Sm1  1  0.315707  0.628973  0.198217  1
  Sm  Sm2  1  0.463453  0.931658  0.719618  1
  Sm  Sm3  1  0.428871  0.857655  0.019249  1
  Sm  Sm4  1  0.721851  0.448317  0.078943  1
  Sm  Sm5  1  0.237594  0.473494  0.648090  1
  Sm  Sm6  1  0.275488  0.552235  0.921997  1
  Sm  Sm7  1  0.144910  0.290915  0.355728  1
  Sm  Sm8  1  0.649673  0.297205  0.519099  1
  Sm  Sm9  1  0.881273  0.761561  0.869435  1
  Sm  Sm10  1  0.042597  0.084928  0.593864  1
  Sm  Sm11  1  0.350627  0.703960  0.482237  1
  Sm  Sm12  1  0.924639  0.851666  0.186866  1
  Sm  Sm13  1  0.569240  0.141663  0.980115  1
  Sm  Sm14  1  0.072519  0.148942  0.814221  1
  Sm  Sm15  1  0.956852  0.916156  0.406339  1
  Sm  Sm16  1  0.119594  0.237473  0.130185  1
  Sm  Sm17  1  0.764844  0.525508  0.352518  1
  Sm  Sm18  1  0.682686  0.370637  0.803020  1
  Sm  Sm19  1  0.854052  0.710608  0.644490  1
  Pd  Pd20  1  0.069318  0.668887  0.047544  1
  Pd  Pd21  1  0.152802  0.302426  0.524582  1
  Pd  Pd22  1  0.383376  0.766683  0.839291  1
  Pd  Pd23  1  0.042453  0.076705  0.273114  1
  Pd  Pd24  1  0.312861  0.114130  0.438656  1
  Pd  Pd25  1  0.640191  0.282412  0.335939  1
  Pd  Pd26  1  0.617321  0.232760  0.159701  1
  Pd  Pd27  1  0.738600  0.476015  0.644965  1
  Pd  Pd28  1  0.960264  0.924996  0.727161  1
  Pd  Pd29  1  0.377951  0.255041  0.676286  1
  Pd  Pd30  1  0.264023  0.525039  0.356275  1
  Pd  Pd31  1  0.056433  0.115823  0.983415  1
  Pd  Pd32  1  0.813912  0.624928  0.197754  1
  Pd  Pd33  1  0.847940  0.698282  0.475787  1
  Pd  Pd34  1  0.768674  0.538767  0.921823  1
  Pd  Pd35  1  0.271332  0.031508  0.117504  1
  Pd  Pd36  1  0.600802  0.669081  0.047041  1
  Pd  Pd37  1  0.449135  0.407091  0.226681  1
  Pd  Pd38  1  0.357232  0.717160  0.664625  1
  Pd  Pd39  1  0.760836  0.031922  0.117521  1
  Pd  Pd40  1  0.565594  0.134358  0.790233  1
  Pd  Pd41  1  0.544781  0.088587  0.591152  1
  Pd  Pd42  1  0.184938  0.375229  0.803129  1
  Pd  Pd43  1  0.876300  0.255160  0.676610  1
  Pd  Pd44  1  0.236106  0.967273  0.881758  1
  Pd  Pd45  1  0.001310  0.500456  0.500675  1
  Pd  Pd46  1  0.197456  0.887593  0.560674  1
  Pd  Pd47  1  0.620922  0.744879  0.324511  1
  Pd  Pd48  1  0.958192  0.406892  0.226508  1
  Pd  Pd49  1  0.396176  0.330438  0.953949  1
  Pd  Pd50  1  0.228697  0.461345  0.079084  1
  Pd  Pd51  1  0.940640  0.881080  0.017271  1
  Pd  Pd52  1  0.431606  0.865071  0.210685  1
  Pd  Pd53  1  0.122183  0.744620  0.324565  1
  Pd  Pd54  1  0.455101  0.912487  0.408294  1
  Pd  Pd55  1  0.802349  0.114280  0.439084  1
  Pd  Pd56  1  0.928055  0.330921  0.953688  1
  Pd  Pd57  1  0.727559  0.966564  0.881658  1
  Pd  Pd58  1  0.501137  0.500130  0.500373  1
  Pd  Pd59  1  0.041561  0.591957  0.773571  1
  Pd  Pd60  1  0.550269  0.591881  0.773855  1
  Pd  Pd61  1  0.686827  0.887721  0.560638  1
