# generated using pymatgen
data_Co2CuO4
_symmetry_space_group_name_H-M   'P 1'
_cell_length_a   5.88437083
_cell_length_b   5.86474732
_cell_length_c   5.86474696
_cell_angle_alpha   59.99999346
_cell_angle_beta   60.11025542
_cell_angle_gamma   60.11025759
_symmetry_Int_Tables_number   1
_chemical_formula_structural   Co2CuO4
_chemical_formula_sum   'Co4 Cu2 O8'
_cell_volume   143.35252776
_cell_formula_units_Z   2
loop_
 _symmetry_equiv_pos_site_id
 _symmetry_equiv_pos_as_xyz
  1  'x, y, z'
loop_
 _atom_site_type_symbol
 _atom_site_label
 _atom_site_symmetry_multiplicity
 _atom_site_fract_x
 _atom_site_fract_y
 _atom_site_fract_z
 _atom_site_occupancy
  Co  Co0  1  0.247635  0.250788  0.250788  1
  Co  Co1  1  0.625637  0.625365  0.123634  1
  Co  Co2  1  0.625637  0.123634  0.625365  1
  Co  Co3  1  0.625637  0.625365  0.625365  1
  Cu  Cu4  1  1.001179  -0.000393  -0.000393  1
  Cu  Cu5  1  0.126434  0.624522  0.624522  1
  O  O6  1  0.391483  0.381764  0.381764  1
  O  O7  1  0.391483  0.381764  0.844989  1
  O  O8  1  0.391483  0.844989  0.381764  1
  O  O9  1  0.834002  0.388666  0.388666  1
  O  O10  1  0.417541  0.860820  0.860820  1
  O  O11  1  0.857283  0.868246  0.406225  1
  O  O12  1  0.857283  0.406225  0.868246  1
  O  O13  1  0.857283  0.868246  0.868246  1
