# generated using pymatgen
data_Sm10Pd21
_symmetry_space_group_name_H-M   'P 1'
_cell_length_a   5.85822655
_cell_length_b   12.93272289
_cell_length_c   16.74888025
_cell_angle_alpha   90.76199536
_cell_angle_beta   90.01206884
_cell_angle_gamma   103.08606574
_symmetry_Int_Tables_number   1
_chemical_formula_structural   Sm10Pd21
_chemical_formula_sum   'Sm20 Pd42'
_cell_volume   1235.87325341
_cell_formula_units_Z   2
loop_
 _symmetry_equiv_pos_site_id
 _symmetry_equiv_pos_as_xyz
  1  'x, y, z'
loop_
 _atom_site_type_symbol
 _atom_site_label
 _atom_site_symmetry_multiplicity
 _atom_site_fract_x
 _atom_site_fract_y
 _atom_site_fract_z
 _atom_site_occupancy
  Sm  Sm0  1  0.534211  0.067394  0.279849  1
  Sm  Sm1  1  0.314492  0.628265  0.198450  1
  Sm  Sm2  1  0.469235  0.932165  0.720073  1
  Sm  Sm3  1  0.429883  0.857720  0.019012  1
  Sm  Sm4  1  0.722035  0.448108  0.079059  1
  Sm  Sm5  1  0.235817  0.473284  0.648275  1
  Sm  Sm6  1  0.274089  0.552337  0.921470  1
  Sm  Sm7  1  0.142700  0.287698  0.355781  1
  Sm  Sm8  1  0.646897  0.296895  0.519625  1
  Sm  Sm9  1  0.882113  0.762677  0.869767  1
  Sm  Sm10  1  0.043736  0.084212  0.594210  1
  Sm  Sm11  1  0.349338  0.702879  0.481142  1
  Sm  Sm12  1  0.925611  0.851560  0.186562  1
  Sm  Sm13  1  0.571241  0.143055  0.980784  1
  Sm  Sm14  1  0.072639  0.147597  0.813316  1
  Sm  Sm15  1  0.957915  0.915341  0.406025  1
  Sm  Sm16  1  0.118844  0.237617  0.130947  1
  Sm  Sm17  1  0.761516  0.524961  0.352496  1
  Sm  Sm18  1  0.686873  0.371478  0.803063  1
  Sm  Sm19  1  0.854049  0.712255  0.644440  1
  Pd  Pd20  1  0.068560  0.669287  0.046631  1
  Pd  Pd21  1  0.148990  0.301758  0.524732  1
  Pd  Pd22  1  0.384122  0.767039  0.839024  1
  Pd  Pd23  1  0.037921  0.074388  0.272456  1
  Pd  Pd24  1  0.312418  0.112353  0.439895  1
  Pd  Pd25  1  0.639668  0.281262  0.336856  1
  Pd  Pd26  1  0.615859  0.232263  0.160885  1
  Pd  Pd27  1  0.737852  0.477438  0.645049  1
  Pd  Pd28  1  0.965729  0.925125  0.728331  1
  Pd  Pd29  1  0.377919  0.255023  0.676844  1
  Pd  Pd30  1  0.259763  0.522061  0.356186  1
  Pd  Pd31  1  0.059815  0.120121  0.982994  1
  Pd  Pd32  1  0.813156  0.624682  0.197020  1
  Pd  Pd33  1  0.846235  0.697357  0.475418  1
  Pd  Pd34  1  0.767204  0.539820  0.921635  1
  Pd  Pd35  1  0.272257  0.031984  0.116450  1
  Pd  Pd36  1  0.599725  0.669451  0.047221  1
  Pd  Pd37  1  0.447220  0.406033  0.227356  1
  Pd  Pd38  1  0.356052  0.717698  0.663813  1
  Pd  Pd39  1  0.762782  0.032290  0.117303  1
  Pd  Pd40  1  0.566442  0.135102  0.791123  1
  Pd  Pd41  1  0.545522  0.088044  0.591954  1
  Pd  Pd42  1  0.188352  0.374013  0.803874  1
  Pd  Pd43  1  0.876338  0.254966  0.676711  1
  Pd  Pd44  1  0.240226  0.968297  0.882976  1
  Pd  Pd45  1  0.998056  0.500056  0.500680  1
  Pd  Pd46  1  0.201324  0.887574  0.559879  1
  Pd  Pd47  1  0.621608  0.744016  0.323760  1
  Pd  Pd48  1  0.955769  0.406230  0.227143  1
  Pd  Pd49  1  0.399297  0.332050  0.954228  1
  Pd  Pd50  1  0.229178  0.462123  0.079477  1
  Pd  Pd51  1  0.942591  0.882536  0.017061  1
  Pd  Pd52  1  0.431697  0.864370  0.209111  1
  Pd  Pd53  1  0.122124  0.744187  0.323814  1
  Pd  Pd54  1  0.456001  0.911077  0.407241  1
  Pd  Pd55  1  0.800219  0.112536  0.440070  1
  Pd  Pd56  1  0.930671  0.332066  0.954158  1
  Pd  Pd57  1  0.730218  0.968042  0.883330  1
  Pd  Pd58  1  0.497997  0.499609  0.500452  1
  Pd  Pd59  1  0.040547  0.592946  0.773257  1
  Pd  Pd60  1  0.549628  0.593058  0.773177  1
  Pd  Pd61  1  0.688635  0.887427  0.559636  1
