# generated using pymatgen
data_Sm11Cd45
_symmetry_space_group_name_H-M   'P 1'
_cell_length_a   15.56299113
_cell_length_b   15.56299119
_cell_length_c   15.56299152
_cell_angle_alpha   59.99999929
_cell_angle_beta   59.99999916
_cell_angle_gamma   59.99999828
_symmetry_Int_Tables_number   1
_chemical_formula_structural   Sm11Cd45
_chemical_formula_sum   'Sm22 Cd90'
_cell_volume   2665.41117118
_cell_formula_units_Z   2
loop_
 _symmetry_equiv_pos_site_id
 _symmetry_equiv_pos_as_xyz
  1  'x, y, z'
loop_
 _atom_site_type_symbol
 _atom_site_label
 _atom_site_symmetry_multiplicity
 _atom_site_fract_x
 _atom_site_fract_y
 _atom_site_fract_z
 _atom_site_occupancy
  Sm  Sm0  1  0.661536  0.015393  0.661536  1
  Sm  Sm1  1  0.406680  0.779960  0.406680  1
  Sm  Sm2  1  0.779960  0.406680  0.406680  1
  Sm  Sm3  1  0.014037  0.014037  0.333078  1
  Sm  Sm4  1  0.014037  0.014037  0.638849  1
  Sm  Sm5  1  0.406680  0.406680  0.779960  1
  Sm  Sm6  1  0.250000  0.250000  0.250000  1
  Sm  Sm7  1  0.015393  0.661536  0.661536  1
  Sm  Sm8  1  0.014037  0.638849  0.333078  1
  Sm  Sm9  1  0.333078  0.014037  0.014037  1
  Sm  Sm10  1  0.406680  0.406680  0.406680  1
  Sm  Sm11  1  0.638849  0.014037  0.014037  1
  Sm  Sm12  1  0.333078  0.014037  0.638849  1
  Sm  Sm13  1  0.014037  0.333078  0.014037  1
  Sm  Sm14  1  0.638849  0.333078  0.014037  1
  Sm  Sm15  1  0.014037  0.333078  0.638849  1
  Sm  Sm16  1  0.000000  0.000000  0.000000  1
  Sm  Sm17  1  0.638849  0.014037  0.333078  1
  Sm  Sm18  1  0.014037  0.638849  0.014037  1
  Sm  Sm19  1  0.661536  0.661536  0.661536  1
  Sm  Sm20  1  0.661536  0.661536  0.015393  1
  Sm  Sm21  1  0.333078  0.638849  0.014037  1
  Cd  Cd22  1  0.262616  0.863326  0.611442  1
  Cd  Cd23  1  0.910994  0.589006  0.589006  1
  Cd  Cd24  1  0.512436  0.833282  0.512436  1
  Cd  Cd25  1  0.141845  0.833282  0.512436  1
  Cd  Cd26  1  0.262616  0.863326  0.262616  1
  Cd  Cd27  1  0.083157  0.083157  0.083157  1
  Cd  Cd28  1  0.156427  0.843573  0.843573  1
  Cd  Cd29  1  0.156427  0.156427  0.843573  1
  Cd  Cd30  1  0.263820  0.912060  0.912060  1
  Cd  Cd31  1  0.067864  0.403669  0.764234  1
  Cd  Cd32  1  0.512436  0.512436  0.833282  1
  Cd  Cd33  1  0.450451  0.268919  0.640315  1
  Cd  Cd34  1  0.863326  0.262616  0.611442  1
  Cd  Cd35  1  0.833282  0.141845  0.512436  1
  Cd  Cd36  1  0.163737  0.163737  0.163737  1
  Cd  Cd37  1  0.262616  0.262616  0.611442  1
  Cd  Cd38  1  0.829729  0.510813  0.829729  1
  Cd  Cd39  1  0.863326  0.611442  0.262616  1
  Cd  Cd40  1  0.262616  0.611442  0.262616  1
  Cd  Cd41  1  0.764234  0.067864  0.403669  1
  Cd  Cd42  1  0.640315  0.640315  0.268919  1
  Cd  Cd43  1  0.829729  0.829729  0.510813  1
  Cd  Cd44  1  0.640315  0.268919  0.450451  1
  Cd  Cd45  1  0.390696  0.201406  0.390696  1
  Cd  Cd46  1  0.640315  0.640315  0.450451  1
  Cd  Cd47  1  0.390696  0.390696  0.017202  1
  Cd  Cd48  1  0.512436  0.512436  0.141845  1
  Cd  Cd49  1  0.403669  0.764234  0.067864  1
  Cd  Cd50  1  0.640315  0.268919  0.640315  1
  Cd  Cd51  1  0.589006  0.910994  0.589006  1
  Cd  Cd52  1  0.510813  0.829729  0.829729  1
  Cd  Cd53  1  0.390696  0.017202  0.390696  1
  Cd  Cd54  1  0.764234  0.403669  0.764234  1
  Cd  Cd55  1  0.017202  0.390696  0.390696  1
  Cd  Cd56  1  0.390696  0.017202  0.201406  1
  Cd  Cd57  1  0.912060  0.912060  0.263820  1
  Cd  Cd58  1  0.843573  0.156427  0.843573  1
  Cd  Cd59  1  0.450451  0.640315  0.640315  1
  Cd  Cd60  1  0.829729  0.829729  0.829729  1
  Cd  Cd61  1  0.268919  0.640315  0.640315  1
  Cd  Cd62  1  0.017202  0.390696  0.201406  1
  Cd  Cd63  1  0.750529  0.083157  0.083157  1
  Cd  Cd64  1  0.589006  0.910994  0.910994  1
  Cd  Cd65  1  0.141845  0.512436  0.833282  1
  Cd  Cd66  1  0.390696  0.390696  0.201406  1
  Cd  Cd67  1  0.750000  0.750000  0.750000  1
  Cd  Cd68  1  0.611442  0.262616  0.863326  1
  Cd  Cd69  1  0.833282  0.512436  0.512436  1
  Cd  Cd70  1  0.912060  0.912060  0.912060  1
  Cd  Cd71  1  0.262616  0.611442  0.863326  1
  Cd  Cd72  1  0.163737  0.163737  0.508789  1
  Cd  Cd73  1  0.640315  0.450451  0.640315  1
  Cd  Cd74  1  0.512436  0.833282  0.141845  1
  Cd  Cd75  1  0.067864  0.764234  0.764234  1
  Cd  Cd76  1  0.403669  0.764234  0.764234  1
  Cd  Cd77  1  0.083157  0.083157  0.750529  1
  Cd  Cd78  1  0.268919  0.640315  0.450451  1
  Cd  Cd79  1  0.611442  0.262616  0.262616  1
  Cd  Cd80  1  0.863326  0.262616  0.262616  1
  Cd  Cd81  1  0.764234  0.403669  0.067864  1
  Cd  Cd82  1  0.141845  0.512436  0.512436  1
  Cd  Cd83  1  0.843573  0.843573  0.156427  1
  Cd  Cd84  1  0.764234  0.764234  0.403669  1
  Cd  Cd85  1  0.512436  0.141845  0.512436  1
  Cd  Cd86  1  0.201406  0.017202  0.390696  1
  Cd  Cd87  1  0.262616  0.262616  0.863326  1
  Cd  Cd88  1  0.450451  0.640315  0.268919  1
  Cd  Cd89  1  0.508789  0.163737  0.163737  1
  Cd  Cd90  1  0.843573  0.156427  0.156427  1
  Cd  Cd91  1  0.201406  0.390696  0.390696  1
  Cd  Cd92  1  0.512436  0.141845  0.833282  1
  Cd  Cd93  1  0.910994  0.910994  0.589006  1
  Cd  Cd94  1  0.589006  0.589006  0.910994  1
  Cd  Cd95  1  0.910994  0.589006  0.910994  1
  Cd  Cd96  1  0.912060  0.263820  0.912060  1
  Cd  Cd97  1  0.268919  0.450451  0.640315  1
  Cd  Cd98  1  0.403669  0.067864  0.764234  1
  Cd  Cd99  1  0.017202  0.201406  0.390696  1
  Cd  Cd100  1  0.500000  0.500000  0.500000  1
  Cd  Cd101  1  0.611442  0.863326  0.262616  1
  Cd  Cd102  1  0.163737  0.508789  0.163737  1
  Cd  Cd103  1  0.083157  0.750529  0.083157  1
  Cd  Cd104  1  0.640315  0.450451  0.268919  1
  Cd  Cd105  1  0.390696  0.201406  0.017202  1
  Cd  Cd106  1  0.764234  0.067864  0.764234  1
  Cd  Cd107  1  0.201406  0.390696  0.017202  1
  Cd  Cd108  1  0.764234  0.764234  0.067864  1
  Cd  Cd109  1  0.833282  0.512436  0.141845  1
  Cd  Cd110  1  0.156427  0.843573  0.156427  1
  Cd  Cd111  1  0.067864  0.764234  0.403669  1
