# generated using pymatgen
data_Sm11(CoB)40
_symmetry_space_group_name_H-M   'P 1'
_cell_length_a   7.03927298
_cell_length_b   7.03927298
_cell_length_c   38.62572254
_cell_angle_alpha   90.00000000
_cell_angle_beta   90.00000000
_cell_angle_gamma   90.00000000
_symmetry_Int_Tables_number   1
_chemical_formula_structural   Sm11(CoB)40
_chemical_formula_sum   'Sm22 Co80 B80'
_cell_volume   1913.95724070
_cell_formula_units_Z   2
loop_
 _symmetry_equiv_pos_site_id
 _symmetry_equiv_pos_as_xyz
  1  'x, y, z'
loop_
 _atom_site_type_symbol
 _atom_site_label
 _atom_site_symmetry_multiplicity
 _atom_site_fract_x
 _atom_site_fract_y
 _atom_site_fract_z
 _atom_site_occupancy
  Sm  Sm0  1  0.000000  0.000000  0.682513  1
  Sm  Sm1  1  0.500000  0.500000  0.272960  1
  Sm  Sm2  1  0.000000  0.000000  0.772960  1
  Sm  Sm3  1  0.000000  0.000000  0.408744  1
  Sm  Sm4  1  0.500000  0.500000  0.727040  1
  Sm  Sm5  1  0.500000  0.500000  0.454519  1
  Sm  Sm6  1  0.500000  0.500000  0.182513  1
  Sm  Sm7  1  0.000000  0.000000  0.136475  1
  Sm  Sm8  1  0.000000  0.000000  0.500000  1
  Sm  Sm9  1  0.500000  0.500000  0.817487  1
  Sm  Sm10  1  0.000000  0.000000  0.227040  1
  Sm  Sm11  1  0.500000  0.500000  0.091256  1
  Sm  Sm12  1  0.500000  0.500000  0.908744  1
  Sm  Sm13  1  0.500000  0.500000  0.363525  1
  Sm  Sm14  1  0.000000  0.000000  0.954519  1
  Sm  Sm15  1  0.000000  0.000000  0.317487  1
  Sm  Sm16  1  0.000000  0.000000  0.863525  1
  Sm  Sm17  1  0.500000  0.500000  0.636475  1
  Sm  Sm18  1  0.500000  0.500000  0.545481  1
  Sm  Sm19  1  0.000000  0.000000  0.045481  1
  Sm  Sm20  1  0.000000  0.000000  0.591256  1
  Sm  Sm21  1  0.500000  0.500000  0.000000  1
  Co  Co22  1  0.880573  0.364237  0.439805  1
  Co  Co23  1  0.616460  0.146350  0.411135  1
  Co  Co24  1  0.643242  0.117041  0.812239  1
  Co  Co25  1  0.143242  0.382959  0.687761  1
  Co  Co26  1  0.874517  0.371952  0.838649  1
  Co  Co27  1  0.853650  0.616460  0.588866  1
  Co  Co28  1  0.130354  0.376865  0.389348  1
  Co  Co29  1  0.635763  0.880573  0.560195  1
  Co  Co30  1  0.359482  0.882617  0.010188  1
  Co  Co31  1  0.383540  0.853650  0.411135  1
  Co  Co32  1  0.883540  0.646350  0.088866  1
  Co  Co33  1  0.866525  0.621475  0.788069  1
  Co  Co34  1  0.128048  0.625483  0.338649  1
  Co  Co35  1  0.119233  0.638873  0.737786  1
  Co  Co36  1  0.121475  0.366525  0.288069  1
  Co  Co37  1  0.638873  0.880767  0.262214  1
  Co  Co38  1  0.144338  0.616477  0.039424  1
  Co  Co39  1  0.619427  0.864237  0.060195  1
  Co  Co40  1  0.882617  0.640518  0.989812  1
  Co  Co41  1  0.383835  0.146501  0.861810  1
  Co  Co42  1  0.883835  0.353499  0.638190  1
  Co  Co43  1  0.353650  0.883540  0.911134  1
  Co  Co44  1  0.117041  0.356758  0.187761  1
  Co  Co45  1  0.861127  0.380767  0.237786  1
  Co  Co46  1  0.356758  0.882959  0.812239  1
  Co  Co47  1  0.123135  0.369646  0.889348  1
  Co  Co48  1  0.855662  0.383523  0.039424  1
  Co  Co49  1  0.640518  0.117383  0.010188  1
  Co  Co50  1  0.138873  0.619233  0.237786  1
  Co  Co51  1  0.859482  0.617383  0.489812  1
  Co  Co52  1  0.628048  0.874517  0.161351  1
  Co  Co53  1  0.616477  0.855662  0.960576  1
  Co  Co54  1  0.378525  0.866525  0.211931  1
  Co  Co55  1  0.380767  0.138873  0.762214  1
  Co  Co56  1  0.619233  0.861127  0.762214  1
  Co  Co57  1  0.140518  0.382617  0.489812  1
  Co  Co58  1  0.882959  0.643242  0.187761  1
  Co  Co59  1  0.856758  0.617041  0.687761  1
  Co  Co60  1  0.146501  0.616165  0.138190  1
  Co  Co61  1  0.119427  0.635763  0.439805  1
  Co  Co62  1  0.623135  0.130354  0.610652  1
  Co  Co63  1  0.116460  0.353650  0.088866  1
  Co  Co64  1  0.383523  0.144338  0.960576  1
  Co  Co65  1  0.146350  0.383540  0.588866  1
  Co  Co66  1  0.380573  0.135763  0.060195  1
  Co  Co67  1  0.646350  0.116460  0.911134  1
  Co  Co68  1  0.864237  0.380573  0.939805  1
  Co  Co69  1  0.616165  0.853499  0.861810  1
  Co  Co70  1  0.133475  0.378525  0.788069  1
  Co  Co71  1  0.617041  0.143242  0.312239  1
  Co  Co72  1  0.625483  0.871952  0.661351  1
  Co  Co73  1  0.364237  0.119427  0.560195  1
  Co  Co74  1  0.878525  0.633475  0.288069  1
  Co  Co75  1  0.374517  0.128048  0.661351  1
  Co  Co76  1  0.117383  0.359482  0.989812  1
  Co  Co77  1  0.853499  0.383835  0.138190  1
  Co  Co78  1  0.135763  0.619427  0.939805  1
  Co  Co79  1  0.366525  0.878525  0.711931  1
  Co  Co80  1  0.644338  0.883523  0.460576  1
  Co  Co81  1  0.869646  0.623135  0.389348  1
  Co  Co82  1  0.876865  0.630354  0.889348  1
  Co  Co83  1  0.369646  0.876865  0.110652  1
  Co  Co84  1  0.371952  0.125483  0.161351  1
  Co  Co85  1  0.353499  0.116165  0.361810  1
  Co  Co86  1  0.361127  0.119233  0.262214  1
  Co  Co87  1  0.871952  0.374517  0.338649  1
  Co  Co88  1  0.116165  0.646501  0.638190  1
  Co  Co89  1  0.646501  0.883835  0.361810  1
  Co  Co90  1  0.355662  0.116477  0.460576  1
  Co  Co91  1  0.382959  0.856758  0.312239  1
  Co  Co92  1  0.880767  0.361127  0.737786  1
  Co  Co93  1  0.125483  0.628048  0.838649  1
  Co  Co94  1  0.633475  0.121475  0.711931  1
  Co  Co95  1  0.621475  0.133475  0.211931  1
  Co  Co96  1  0.883523  0.355662  0.539424  1
  Co  Co97  1  0.382617  0.859482  0.510188  1
  Co  Co98  1  0.376865  0.869646  0.610652  1
  Co  Co99  1  0.116477  0.644338  0.539424  1
  Co  Co100  1  0.630354  0.123135  0.110652  1
  Co  Co101  1  0.617383  0.140518  0.510188  1
  B  B102  1  0.336951  0.206375  0.411057  1
  B  B103  1  0.705661  0.164266  0.361575  1
  B  B104  1  0.300679  0.163309  0.010059  1
  B  B105  1  0.325859  0.824115  0.160869  1
  B  B106  1  0.294339  0.835734  0.361575  1
  B  B107  1  0.832777  0.690459  0.738153  1
  B  B108  1  0.331518  0.182166  0.610326  1
  B  B109  1  0.663309  0.800679  0.510059  1
  B  B110  1  0.665220  0.191371  0.060000  1
  B  B111  1  0.835734  0.705661  0.638425  1
  B  B112  1  0.191371  0.334780  0.940000  1
  B  B113  1  0.824115  0.674141  0.839131  1
  B  B114  1  0.205661  0.335734  0.138425  1
  B  B115  1  0.165220  0.308629  0.440000  1
  B  B116  1  0.198550  0.665806  0.688106  1
  B  B117  1  0.691371  0.165220  0.560000  1
  B  B118  1  0.834780  0.691371  0.440000  1
  B  B119  1  0.671120  0.817801  0.211479  1
  B  B120  1  0.682199  0.828880  0.711479  1
  B  B121  1  0.674141  0.175885  0.160869  1
  B  B122  1  0.682166  0.831518  0.110326  1
  B  B123  1  0.293625  0.163049  0.911057  1
  B  B124  1  0.706375  0.836951  0.911057  1
  B  B125  1  0.317834  0.168482  0.110326  1
  B  B126  1  0.295351  0.837265  0.460460  1
  B  B127  1  0.809541  0.667223  0.238153  1
  B  B128  1  0.165806  0.698550  0.188106  1
  B  B129  1  0.164266  0.294339  0.638425  1
  B  B130  1  0.309541  0.832777  0.261847  1
  B  B131  1  0.206375  0.663049  0.588943  1
  B  B132  1  0.168482  0.682166  0.889674  1
  B  B133  1  0.199321  0.663309  0.489941  1
  B  B134  1  0.334194  0.198550  0.311894  1
  B  B135  1  0.817801  0.328880  0.788521  1
  B  B136  1  0.825859  0.675885  0.339131  1
  B  B137  1  0.337265  0.795351  0.960460  1
  B  B138  1  0.667223  0.190459  0.761847  1
  B  B139  1  0.808629  0.665220  0.940000  1
  B  B140  1  0.317801  0.171120  0.711479  1
  B  B141  1  0.836691  0.300679  0.989941  1
  B  B142  1  0.167223  0.309541  0.738153  1
  B  B143  1  0.182199  0.671120  0.788521  1
  B  B144  1  0.690459  0.167223  0.261847  1
  B  B145  1  0.162735  0.295351  0.539540  1
  B  B146  1  0.675885  0.174141  0.660869  1
  B  B147  1  0.662735  0.204649  0.960460  1
  B  B148  1  0.704649  0.162735  0.460460  1
  B  B149  1  0.171120  0.682199  0.288521  1
  B  B150  1  0.817834  0.331518  0.389674  1
  B  B151  1  0.828880  0.317801  0.288521  1
  B  B152  1  0.308629  0.834780  0.560000  1
  B  B153  1  0.668482  0.817834  0.610326  1
  B  B154  1  0.163049  0.706375  0.088943  1
  B  B155  1  0.301450  0.165806  0.811894  1
  B  B156  1  0.831518  0.317834  0.889674  1
  B  B157  1  0.663049  0.793625  0.411057  1
  B  B158  1  0.332777  0.809541  0.761847  1
  B  B159  1  0.335734  0.794339  0.861575  1
  B  B160  1  0.834194  0.301450  0.188106  1
  B  B161  1  0.699321  0.836691  0.010059  1
  B  B162  1  0.665806  0.801450  0.311894  1
  B  B163  1  0.190459  0.332777  0.238153  1
  B  B164  1  0.664266  0.205661  0.861575  1
  B  B165  1  0.836951  0.293625  0.088943  1
  B  B166  1  0.163309  0.699321  0.989941  1
  B  B167  1  0.204649  0.337265  0.039540  1
  B  B168  1  0.698550  0.834194  0.811894  1
  B  B169  1  0.801450  0.334194  0.688106  1
  B  B170  1  0.175885  0.325859  0.839131  1
  B  B171  1  0.793625  0.336951  0.588943  1
  B  B172  1  0.795351  0.662735  0.039540  1
  B  B173  1  0.837265  0.704649  0.539540  1
  B  B174  1  0.794339  0.664266  0.138425  1
  B  B175  1  0.334780  0.808629  0.060000  1
  B  B176  1  0.800679  0.336691  0.489941  1
  B  B177  1  0.336691  0.199321  0.510059  1
  B  B178  1  0.328880  0.182199  0.211479  1
  B  B179  1  0.174141  0.324115  0.339131  1
  B  B180  1  0.324115  0.825859  0.660869  1
  B  B181  1  0.182166  0.668482  0.389674  1
