# generated using pymatgen
data_Sm3MoO7
_symmetry_space_group_name_H-M   'P 1'
_cell_length_a   7.63931384
_cell_length_b   7.59390474
_cell_length_c   21.45195971
_cell_angle_alpha   89.99757354
_cell_angle_beta   89.99806011
_cell_angle_gamma   89.99870678
_symmetry_Int_Tables_number   1
_chemical_formula_structural   Sm3MoO7
_chemical_formula_sum   'Sm24 Mo8 O56'
_cell_volume   1244.47583766
_cell_formula_units_Z   8
loop_
 _symmetry_equiv_pos_site_id
 _symmetry_equiv_pos_as_xyz
  1  'x, y, z'
loop_
 _atom_site_type_symbol
 _atom_site_label
 _atom_site_symmetry_multiplicity
 _atom_site_fract_x
 _atom_site_fract_y
 _atom_site_fract_z
 _atom_site_occupancy
  Sm  Sm0  1  0.035357  0.511962  0.871284  1
  Sm  Sm1  1  0.199473  0.753567  0.007815  1
  Sm  Sm2  1  0.199336  0.753591  0.507810  1
  Sm  Sm3  1  0.219548  0.745909  0.232858  1
  Sm  Sm4  1  0.219693  0.745789  0.732823  1
  Sm  Sm5  1  0.279387  0.253914  0.482832  1
  Sm  Sm6  1  0.279410  0.253908  0.982842  1
  Sm  Sm7  1  0.299500  0.246227  0.257810  1
  Sm  Sm8  1  0.299607  0.246143  0.757758  1
  Sm  Sm9  1  0.463602  0.487868  0.121284  1
  Sm  Sm10  1  0.463586  0.487867  0.621208  1
  Sm  Sm11  1  0.535316  0.987912  0.628815  1
  Sm  Sm12  1  0.535527  0.987865  0.128891  1
  Sm  Sm13  1  0.699363  0.746244  0.492296  1
  Sm  Sm14  1  0.699444  0.746183  0.992338  1
  Sm  Sm15  1  0.719501  0.754055  0.267316  1
  Sm  Sm16  1  0.719651  0.754113  0.767291  1
  Sm  Sm17  1  0.779490  0.245812  0.017303  1
  Sm  Sm18  1  0.779398  0.245928  0.517268  1
  Sm  Sm19  1  0.799548  0.253714  0.242354  1
  Sm  Sm20  1  0.799572  0.253699  0.742338  1
  Sm  Sm21  1  0.963528  0.011927  0.378874  1
  Sm  Sm22  1  0.963670  0.011977  0.878875  1
  Sm  Sm23  1  0.035228  0.511908  0.371292  1
  Mo  Mo24  1  0.002191  0.999872  0.124530  1
  Mo  Mo25  1  0.002389  -0.000111  0.624314  1
  Mo  Mo26  1  0.496711  -0.000033  0.374481  1
  Mo  Mo27  1  0.496824  -0.000001  0.874437  1
  Mo  Mo28  1  0.502204  0.499954  0.375710  1
  Mo  Mo29  1  0.502329  0.500005  0.875670  1
  Mo  Mo30  1  0.996681  0.499895  0.125784  1
  Mo  Mo31  1  0.996862  0.499843  0.625557  1
  O  O32  1  0.995027  0.267937  0.441266  1
  O  O33  1  0.995172  0.268082  0.941257  1
  O  O34  1  0.038102  0.245694  0.307769  1
  O  O35  1  0.038176  0.245720  0.807757  1
  O  O36  1  0.091085  0.752761  0.121321  1
  O  O37  1  0.091056  0.752697  0.621267  1
  O  O38  1  0.118412  0.050821  0.048788  1
  O  O39  1  0.118701  0.050852  0.548992  1
  O  O40  1  0.171920  0.461812  0.059632  1
  O  O41  1  0.171832  0.461784  0.559648  1
  O  O42  1  0.205098  0.032087  0.183052  1
  O  O43  1  0.205473  0.031922  0.683035  1
  O  O44  1  0.217862  0.462179  0.184284  1
  O  O45  1  0.218088  0.462066  0.684284  1
  O  O46  1  0.281024  0.537637  0.434258  1
  O  O47  1  0.281178  0.537623  0.934278  1
  O  O48  1  0.293768  0.967676  0.433000  1
  O  O49  1  0.293898  0.967755  0.933028  1
  O  O50  1  0.327052  0.538088  0.309603  1
  O  O51  1  0.327240  0.538083  0.809623  1
  O  O52  1  0.380492  0.948978  0.298789  1
  O  O53  1  0.380806  0.948934  0.798808  1
  O  O54  1  0.407796  0.247126  0.371261  1
  O  O55  1  0.407935  0.247124  0.871258  1
  O  O56  1  0.460882  0.754116  0.057771  1
  O  O57  1  0.460887  0.754164  0.557761  1
  O  O58  1  0.503895  0.731822  0.191253  1
  O  O59  1  0.504130  0.731801  0.691249  1
  O  O60  1  0.495027  0.231856  0.058841  1
  O  O61  1  0.495103  0.231865  0.558853  1
  O  O62  1  0.538040  0.254149  0.192355  1
  O  O63  1  0.538197  0.254112  0.692359  1
  O  O64  1  0.591001  0.747124  0.378814  1
  O  O65  1  0.591145  0.747167  0.878843  1
  O  O66  1  0.618671  0.448943  0.451176  1
  O  O67  1  0.618837  0.448902  0.951166  1
  O  O68  1  0.671773  0.038049  0.440481  1
  O  O69  1  0.671988  0.038072  0.940487  1
  O  O70  1  0.705327  0.467870  0.317101  1
  O  O71  1  0.705465  0.467931  0.817080  1
  O  O72  1  0.717901  0.037768  0.315852  1
  O  O73  1  0.718087  0.037805  0.815854  1
  O  O74  1  0.781006  0.962073  0.065852  1
  O  O75  1  0.781166  0.962214  0.565860  1
  O  O76  1  0.793754  0.532012  0.067084  1
  O  O77  1  0.793845  0.532132  0.567124  1
  O  O78  1  0.827025  0.961874  0.190495  1
  O  O79  1  0.827181  0.961750  0.690529  1
  O  O80  1  0.880378  0.550854  0.201201  1
  O  O81  1  0.880771  0.550990  0.701431  1
  O  O82  1  0.907945  0.252700  0.128868  1
  O  O83  1  0.907891  0.252765  0.628887  1
  O  O84  1  0.960825  0.745690  0.442363  1
  O  O85  1  0.960958  0.745693  0.942372  1
  O  O86  1  0.003904  0.767976  0.308857  1
  O  O87  1  0.004068  0.768138  0.808892  1
