# generated using pymatgen
data_Sm3OsO7
_symmetry_space_group_name_H-M   'P 1'
_cell_length_a   7.50236630
_cell_length_b   10.81043692
_cell_length_c   15.03172719
_cell_angle_alpha   90.00000000
_cell_angle_beta   90.00000000
_cell_angle_gamma   90.00000000
_symmetry_Int_Tables_number   1
_chemical_formula_structural   Sm3OsO7
_chemical_formula_sum   'Sm24 Os8 O56'
_cell_volume   1219.13106205
_cell_formula_units_Z   8
loop_
 _symmetry_equiv_pos_site_id
 _symmetry_equiv_pos_as_xyz
  1  'x, y, z'
loop_
 _atom_site_type_symbol
 _atom_site_label
 _atom_site_symmetry_multiplicity
 _atom_site_fract_x
 _atom_site_fract_y
 _atom_site_fract_z
 _atom_site_occupancy
  Sm  Sm0  1  0.003372  0.171273  0.110464  1
  Sm  Sm1  1  0.496628  0.171273  0.610464  1
  Sm  Sm2  1  0.496867  0.687942  0.861046  1
  Sm  Sm3  1  0.751103  0.948111  0.972947  1
  Sm  Sm4  1  0.003133  0.687942  0.361046  1
  Sm  Sm5  1  0.743155  0.910454  0.223059  1
  Sm  Sm6  1  0.996867  0.187942  0.638954  1
  Sm  Sm7  1  0.235401  0.898459  0.521603  1
  Sm  Sm8  1  0.756845  0.459878  0.728572  1
  Sm  Sm9  1  0.503372  0.671273  0.389536  1
  Sm  Sm10  1  0.243155  0.410454  0.276941  1
  Sm  Sm11  1  0.256845  0.959878  0.771428  1
  Sm  Sm12  1  0.996628  0.671273  0.889536  1
  Sm  Sm13  1  0.756845  0.910454  0.723059  1
  Sm  Sm14  1  0.256845  0.410454  0.776941  1
  Sm  Sm15  1  0.251103  0.448111  0.527053  1
  Sm  Sm16  1  0.243155  0.959878  0.271428  1
  Sm  Sm17  1  0.748897  0.948111  0.472947  1
  Sm  Sm18  1  0.743155  0.459878  0.228572  1
  Sm  Sm19  1  0.264599  0.898459  0.021603  1
  Sm  Sm20  1  0.764599  0.398459  0.478397  1
  Sm  Sm21  1  0.735401  0.398459  0.978397  1
  Sm  Sm22  1  0.503133  0.187942  0.138954  1
  Sm  Sm23  1  0.248897  0.448111  0.027053  1
  Os  Os24  1  0.497892  0.677861  0.126168  1
  Os  Os25  1  0.998301  0.680327  0.124923  1
  Os  Os26  1  0.501699  0.680327  0.624923  1
  Os  Os27  1  0.997892  0.177861  0.373832  1
  Os  Os28  1  0.002108  0.677861  0.626168  1
  Os  Os29  1  0.498301  0.180327  0.375077  1
  Os  Os30  1  0.502108  0.177861  0.873832  1
  Os  Os31  1  0.001699  0.180327  0.875077  1
  O  O32  1  0.241352  0.048504  0.630064  1
  O  O33  1  0.735550  0.812896  0.356829  1
  O  O34  1  0.451244  0.830327  0.190568  1
  O  O35  1  0.468327  0.307215  0.469107  1
  O  O36  1  0.264579  0.810819  0.380298  1
  O  O37  1  0.039833  0.053399  0.968442  1
  O  O38  1  0.764579  0.310819  0.119702  1
  O  O39  1  0.758648  0.548504  0.369936  1
  O  O40  1  0.235421  0.810819  0.880298  1
  O  O41  1  0.460167  0.053399  0.468442  1
  O  O42  1  0.748255  0.687910  0.166692  1
  O  O43  1  0.461745  0.574166  0.236002  1
  O  O44  1  0.958666  0.522430  0.561626  1
  O  O45  1  0.966219  0.309150  0.780275  1
  O  O46  1  0.467334  0.555906  0.720660  1
  O  O47  1  0.266150  0.545543  0.893795  1
  O  O48  1  0.960167  0.553399  0.031558  1
  O  O49  1  0.461637  0.280206  0.984348  1
  O  O50  1  0.248713  0.669923  0.084037  1
  O  O51  1  0.032666  0.555906  0.220660  1
  O  O52  1  0.751287  0.169923  0.915963  1
  O  O53  1  0.033781  0.809150  0.219725  1
  O  O54  1  0.961637  0.780206  0.515652  1
  O  O55  1  0.961745  0.074166  0.263998  1
  O  O56  1  0.251287  0.669923  0.584037  1
  O  O57  1  0.041334  0.022430  0.438374  1
  O  O58  1  0.048756  0.830327  0.690568  1
  O  O59  1  0.031673  0.307215  0.969107  1
  O  O60  1  0.264450  0.312896  0.643171  1
  O  O61  1  0.235550  0.312896  0.143171  1
  O  O62  1  0.533781  0.309150  0.280275  1
  O  O63  1  0.766150  0.045544  0.606205  1
  O  O64  1  0.538363  0.780206  0.015652  1
  O  O65  1  0.458666  0.022430  0.938374  1
  O  O66  1  0.741352  0.548504  0.869936  1
  O  O67  1  0.764450  0.812896  0.856829  1
  O  O68  1  0.251745  0.187910  0.833308  1
  O  O69  1  0.532666  0.055906  0.279340  1
  O  O70  1  0.258648  0.048504  0.130064  1
  O  O71  1  0.233850  0.545543  0.393795  1
  O  O72  1  0.539833  0.553399  0.531558  1
  O  O73  1  0.538255  0.074166  0.763998  1
  O  O74  1  0.541334  0.522430  0.061626  1
  O  O75  1  0.733850  0.045544  0.106205  1
  O  O76  1  0.951244  0.330327  0.309432  1
  O  O77  1  0.038255  0.574166  0.736002  1
  O  O78  1  0.735421  0.310819  0.619702  1
  O  O79  1  0.531673  0.807215  0.530893  1
  O  O80  1  0.466219  0.809150  0.719725  1
  O  O81  1  0.968327  0.807215  0.030893  1
  O  O82  1  0.548756  0.330327  0.809432  1
  O  O83  1  0.751745  0.687910  0.666692  1
  O  O84  1  0.748713  0.169923  0.415963  1
  O  O85  1  0.967334  0.055906  0.779340  1
  O  O86  1  0.038363  0.280206  0.484348  1
  O  O87  1  0.248255  0.187910  0.333308  1
