# generated using pymatgen
data_Sm3RuO7
_symmetry_space_group_name_H-M   'P 1'
_cell_length_a   7.49696608
_cell_length_b   10.80074626
_cell_length_c   14.92838287
_cell_angle_alpha   90.00000000
_cell_angle_beta   90.00000000
_cell_angle_gamma   90.00000000
_symmetry_Int_Tables_number   1
_chemical_formula_structural   Sm3RuO7
_chemical_formula_sum   'Sm24 Ru8 O56'
_cell_volume   1208.79338367
_cell_formula_units_Z   8
loop_
 _symmetry_equiv_pos_site_id
 _symmetry_equiv_pos_as_xyz
  1  'x, y, z'
loop_
 _atom_site_type_symbol
 _atom_site_label
 _atom_site_symmetry_multiplicity
 _atom_site_fract_x
 _atom_site_fract_y
 _atom_site_fract_z
 _atom_site_occupancy
  Sm  Sm0  1  0.749183  0.952155  0.470804  1
  Sm  Sm1  1  0.755075  0.908701  0.721178  1
  Sm  Sm2  1  0.504211  0.672453  0.389560  1
  Sm  Sm3  1  0.250817  0.452155  0.529196  1
  Sm  Sm4  1  0.734288  0.397312  0.975884  1
  Sm  Sm5  1  0.495969  0.688559  0.860429  1
  Sm  Sm6  1  0.742773  0.463351  0.225506  1
  Sm  Sm7  1  0.244925  0.408701  0.278822  1
  Sm  Sm8  1  0.495789  0.172453  0.610440  1
  Sm  Sm9  1  0.265712  0.897312  0.024116  1
  Sm  Sm10  1  0.242773  0.963351  0.274494  1
  Sm  Sm11  1  0.257227  0.963351  0.774494  1
  Sm  Sm12  1  0.757227  0.463351  0.725506  1
  Sm  Sm13  1  0.234288  0.897312  0.524116  1
  Sm  Sm14  1  0.995789  0.672453  0.889560  1
  Sm  Sm15  1  0.004211  0.172453  0.110440  1
  Sm  Sm16  1  0.744925  0.908701  0.221178  1
  Sm  Sm17  1  0.750817  0.952155  0.970804  1
  Sm  Sm18  1  0.504031  0.188559  0.139571  1
  Sm  Sm19  1  0.255075  0.408701  0.778822  1
  Sm  Sm20  1  0.004031  0.688559  0.360429  1
  Sm  Sm21  1  0.995969  0.188559  0.639571  1
  Sm  Sm22  1  0.249183  0.452155  0.029196  1
  Sm  Sm23  1  0.765712  0.397312  0.475884  1
  Ru  Ru24  1  0.498344  0.679358  0.126389  1
  Ru  Ru25  1  0.001656  0.679358  0.626389  1
  Ru  Ru26  1  0.998698  0.681425  0.124781  1
  Ru  Ru27  1  0.501302  0.681425  0.624781  1
  Ru  Ru28  1  0.498698  0.181425  0.375219  1
  Ru  Ru29  1  0.998344  0.179358  0.373611  1
  Ru  Ru30  1  0.001302  0.181425  0.875219  1
  Ru  Ru31  1  0.501656  0.179358  0.873611  1
  O  O32  1  0.533794  0.808947  0.531972  1
  O  O33  1  0.535690  0.056335  0.280559  1
  O  O34  1  0.749329  0.687976  0.168256  1
  O  O35  1  0.450768  0.830340  0.191415  1
  O  O36  1  0.735112  0.311451  0.618368  1
  O  O37  1  0.043476  0.024081  0.438321  1
  O  O38  1  0.541617  0.554508  0.531787  1
  O  O39  1  0.543476  0.524081  0.061679  1
  O  O40  1  0.764888  0.311451  0.118368  1
  O  O41  1  0.549232  0.330340  0.808585  1
  O  O42  1  0.950768  0.330340  0.308585  1
  O  O43  1  0.963450  0.310497  0.780177  1
  O  O44  1  0.749006  0.172436  0.417567  1
  O  O45  1  0.263657  0.313354  0.643575  1
  O  O46  1  0.240730  0.049238  0.631528  1
  O  O47  1  0.964310  0.056335  0.780559  1
  O  O48  1  0.458383  0.054508  0.468213  1
  O  O49  1  0.036550  0.810497  0.219823  1
  O  O50  1  0.956524  0.524081  0.561679  1
  O  O51  1  0.040926  0.282288  0.484024  1
  O  O52  1  0.259271  0.049238  0.131528  1
  O  O53  1  0.234077  0.546634  0.394274  1
  O  O54  1  0.540926  0.782288  0.015976  1
  O  O55  1  0.740730  0.549238  0.868472  1
  O  O56  1  0.759270  0.549238  0.368472  1
  O  O57  1  0.249006  0.672436  0.082433  1
  O  O58  1  0.539954  0.074784  0.763987  1
  O  O59  1  0.250671  0.187976  0.831744  1
  O  O60  1  0.765923  0.046634  0.605726  1
  O  O61  1  0.249329  0.187976  0.331744  1
  O  O62  1  0.039954  0.574784  0.736013  1
  O  O63  1  0.264888  0.811451  0.381632  1
  O  O64  1  0.536550  0.310497  0.280177  1
  O  O65  1  0.250994  0.672436  0.582433  1
  O  O66  1  0.763657  0.813354  0.856425  1
  O  O67  1  0.041617  0.054508  0.968213  1
  O  O68  1  0.466206  0.308947  0.468028  1
  O  O69  1  0.966206  0.808947  0.031972  1
  O  O70  1  0.750671  0.687976  0.668256  1
  O  O71  1  0.463450  0.810497  0.719823  1
  O  O72  1  0.035690  0.556335  0.219441  1
  O  O73  1  0.459074  0.282288  0.984024  1
  O  O74  1  0.456524  0.024081  0.938321  1
  O  O75  1  0.750994  0.172436  0.917567  1
  O  O76  1  0.734077  0.046634  0.105726  1
  O  O77  1  0.236343  0.313354  0.143575  1
  O  O78  1  0.460046  0.574784  0.236013  1
  O  O79  1  0.959074  0.782288  0.515976  1
  O  O80  1  0.265923  0.546634  0.894274  1
  O  O81  1  0.464310  0.556335  0.719441  1
  O  O82  1  0.033794  0.308947  0.968028  1
  O  O83  1  0.958383  0.554508  0.031787  1
  O  O84  1  0.960046  0.074784  0.263987  1
  O  O85  1  0.235112  0.811451  0.881632  1
  O  O86  1  0.049232  0.830340  0.691415  1
  O  O87  1  0.736343  0.813354  0.356425  1
