# generated using pymatgen
data_Sm13Cd58
_symmetry_space_group_name_H-M   'P 1'
_cell_length_a   15.90041834
_cell_length_b   15.90041833
_cell_length_c   15.61204512
_cell_angle_alpha   90.00000000
_cell_angle_beta   90.00000000
_cell_angle_gamma   120.00000002
_symmetry_Int_Tables_number   1
_chemical_formula_structural   Sm13Cd58
_chemical_formula_sum   'Sm26 Cd116'
_cell_volume   3418.27918571
_cell_formula_units_Z   2
loop_
 _symmetry_equiv_pos_site_id
 _symmetry_equiv_pos_as_xyz
  1  'x, y, z'
loop_
 _atom_site_type_symbol
 _atom_site_label
 _atom_site_symmetry_multiplicity
 _atom_site_fract_x
 _atom_site_fract_y
 _atom_site_fract_z
 _atom_site_occupancy
  Sm  Sm0  1  0.411381  0.205690  0.552544  1
  Sm  Sm1  1  0.871691  0.743381  0.250000  1
  Sm  Sm2  1  0.205690  0.411381  0.052544  1
  Sm  Sm3  1  0.087398  0.543699  0.750000  1
  Sm  Sm4  1  0.794310  0.588619  0.947456  1
  Sm  Sm5  1  0.794310  0.205690  0.552544  1
  Sm  Sm6  1  0.912602  0.456301  0.250000  1
  Sm  Sm7  1  0.794310  0.205690  0.947456  1
  Sm  Sm8  1  0.794310  0.588619  0.552544  1
  Sm  Sm9  1  0.456301  0.912602  0.750000  1
  Sm  Sm10  1  0.128309  0.871691  0.750000  1
  Sm  Sm11  1  0.871691  0.128309  0.250000  1
  Sm  Sm12  1  0.588619  0.794310  0.052544  1
  Sm  Sm13  1  0.588619  0.794310  0.447456  1
  Sm  Sm14  1  0.205690  0.794310  0.447456  1
  Sm  Sm15  1  0.000000  0.000000  0.000000  1
  Sm  Sm16  1  0.456301  0.543699  0.750000  1
  Sm  Sm17  1  0.543699  0.087398  0.250000  1
  Sm  Sm18  1  0.128309  0.256619  0.750000  1
  Sm  Sm19  1  0.743381  0.871691  0.750000  1
  Sm  Sm20  1  0.205690  0.411381  0.447456  1
  Sm  Sm21  1  0.411381  0.205690  0.947456  1
  Sm  Sm22  1  0.000000  0.000000  0.500000  1
  Sm  Sm23  1  0.256619  0.128309  0.250000  1
  Sm  Sm24  1  0.205690  0.794310  0.052544  1
  Sm  Sm25  1  0.543699  0.456301  0.250000  1
  Cd  Cd26  1  0.907612  0.092388  0.655723  1
  Cd  Cd27  1  0.000000  0.198355  0.000000  1
  Cd  Cd28  1  0.635257  0.964024  0.602186  1
  Cd  Cd29  1  0.364743  0.328766  0.397814  1
  Cd  Cd30  1  0.671234  0.635257  0.102186  1
  Cd  Cd31  1  0.600273  0.399727  0.051927  1
  Cd  Cd32  1  0.635257  0.671234  0.897814  1
  Cd  Cd33  1  0.964024  0.635257  0.102186  1
  Cd  Cd34  1  0.200545  0.600273  0.948073  1
  Cd  Cd35  1  0.092388  0.907612  0.344277  1
  Cd  Cd36  1  0.560637  0.121275  0.646204  1
  Cd  Cd37  1  0.815224  0.907612  0.344277  1
  Cd  Cd38  1  0.733011  0.266989  0.750000  1
  Cd  Cd39  1  0.439363  0.878725  0.353796  1
  Cd  Cd40  1  0.328766  0.364743  0.897814  1
  Cd  Cd41  1  0.035976  0.671234  0.897814  1
  Cd  Cd42  1  0.531081  0.765541  0.841532  1
  Cd  Cd43  1  0.801645  0.801645  0.000000  1
  Cd  Cd44  1  0.364743  0.035976  0.397814  1
  Cd  Cd45  1  0.000000  0.198355  0.500000  1
  Cd  Cd46  1  0.918809  0.642793  0.750000  1
  Cd  Cd47  1  0.198355  0.198355  0.500000  1
  Cd  Cd48  1  0.671234  0.035976  0.102186  1
  Cd  Cd49  1  0.600273  0.399727  0.448073  1
  Cd  Cd50  1  0.765541  0.531081  0.341532  1
  Cd  Cd51  1  0.765541  0.531081  0.158468  1
  Cd  Cd52  1  0.964024  0.328766  0.102186  1
  Cd  Cd53  1  0.666667  0.333333  0.595684  1
  Cd  Cd54  1  0.276016  0.918809  0.250000  1
  Cd  Cd55  1  0.468919  0.234459  0.341532  1
  Cd  Cd56  1  0.035976  0.364743  0.602186  1
  Cd  Cd57  1  0.333333  0.666667  0.750000  1
  Cd  Cd58  1  0.723984  0.081191  0.750000  1
  Cd  Cd59  1  0.035976  0.364743  0.897814  1
  Cd  Cd60  1  0.801645  0.000000  0.500000  1
  Cd  Cd61  1  0.600273  0.200545  0.448073  1
  Cd  Cd62  1  0.671234  0.035976  0.397814  1
  Cd  Cd63  1  0.357207  0.081191  0.750000  1
  Cd  Cd64  1  0.918809  0.276016  0.750000  1
  Cd  Cd65  1  0.000000  0.801645  0.000000  1
  Cd  Cd66  1  0.439363  0.560637  0.146204  1
  Cd  Cd67  1  0.121275  0.560637  0.353796  1
  Cd  Cd68  1  0.500000  0.000000  0.500000  1
  Cd  Cd69  1  0.907612  0.815224  0.844277  1
  Cd  Cd70  1  0.092388  0.184776  0.155723  1
  Cd  Cd71  1  0.035976  0.671234  0.602186  1
  Cd  Cd72  1  0.328766  0.364743  0.602186  1
  Cd  Cd73  1  0.560637  0.121275  0.853796  1
  Cd  Cd74  1  0.200545  0.600273  0.551927  1
  Cd  Cd75  1  0.635257  0.671234  0.602186  1
  Cd  Cd76  1  0.439363  0.560637  0.353796  1
  Cd  Cd77  1  0.000000  0.000000  0.250000  1
  Cd  Cd78  1  0.600273  0.200545  0.051927  1
  Cd  Cd79  1  0.799455  0.399727  0.448073  1
  Cd  Cd80  1  0.733011  0.466022  0.750000  1
  Cd  Cd81  1  0.399727  0.799455  0.948073  1
  Cd  Cd82  1  0.666667  0.333333  0.904316  1
  Cd  Cd83  1  0.234459  0.468919  0.841532  1
  Cd  Cd84  1  0.765541  0.234459  0.158468  1
  Cd  Cd85  1  0.276016  0.357207  0.250000  1
  Cd  Cd86  1  0.399727  0.600273  0.551927  1
  Cd  Cd87  1  0.364743  0.035976  0.102186  1
  Cd  Cd88  1  0.765541  0.234459  0.341532  1
  Cd  Cd89  1  0.815224  0.907612  0.155723  1
  Cd  Cd90  1  0.328766  0.964024  0.897814  1
  Cd  Cd91  1  0.878725  0.439363  0.853796  1
  Cd  Cd92  1  0.907612  0.815224  0.655723  1
  Cd  Cd93  1  0.121275  0.560637  0.146204  1
  Cd  Cd94  1  0.964024  0.328766  0.397814  1
  Cd  Cd95  1  0.642793  0.723984  0.250000  1
  Cd  Cd96  1  0.560637  0.439363  0.853796  1
  Cd  Cd97  1  0.468919  0.234459  0.158468  1
  Cd  Cd98  1  0.801645  0.801645  0.500000  1
  Cd  Cd99  1  0.000000  0.000000  0.750000  1
  Cd  Cd100  1  0.184776  0.092388  0.655723  1
  Cd  Cd101  1  0.198355  0.198355  0.000000  1
  Cd  Cd102  1  0.198355  0.000000  0.500000  1
  Cd  Cd103  1  0.081191  0.357207  0.250000  1
  Cd  Cd104  1  0.671234  0.635257  0.397814  1
  Cd  Cd105  1  0.531081  0.765541  0.658468  1
  Cd  Cd106  1  0.799455  0.399727  0.051927  1
  Cd  Cd107  1  0.364743  0.328766  0.102186  1
  Cd  Cd108  1  0.234459  0.765541  0.841532  1
  Cd  Cd109  1  0.666667  0.333333  0.250000  1
  Cd  Cd110  1  0.439363  0.878725  0.146204  1
  Cd  Cd111  1  0.500000  0.500000  0.000000  1
  Cd  Cd112  1  0.000000  0.500000  0.500000  1
  Cd  Cd113  1  0.234459  0.765541  0.658468  1
  Cd  Cd114  1  0.333333  0.666667  0.404316  1
  Cd  Cd115  1  0.198355  0.000000  0.000000  1
  Cd  Cd116  1  0.081191  0.723984  0.250000  1
  Cd  Cd117  1  0.000000  0.801645  0.500000  1
  Cd  Cd118  1  0.635257  0.964024  0.897814  1
  Cd  Cd119  1  0.500000  0.500000  0.500000  1
  Cd  Cd120  1  0.184776  0.092388  0.844277  1
  Cd  Cd121  1  0.533978  0.266989  0.750000  1
  Cd  Cd122  1  0.092388  0.907612  0.155723  1
  Cd  Cd123  1  0.907612  0.092388  0.844277  1
  Cd  Cd124  1  0.560637  0.439363  0.646204  1
  Cd  Cd125  1  0.357207  0.276016  0.750000  1
  Cd  Cd126  1  0.266989  0.733011  0.250000  1
  Cd  Cd127  1  0.964024  0.635257  0.397814  1
  Cd  Cd128  1  0.333333  0.666667  0.095684  1
  Cd  Cd129  1  0.266989  0.533978  0.250000  1
  Cd  Cd130  1  0.801645  0.000000  0.000000  1
  Cd  Cd131  1  0.642793  0.918809  0.250000  1
  Cd  Cd132  1  0.500000  0.000000  0.000000  1
  Cd  Cd133  1  0.878725  0.439363  0.646204  1
  Cd  Cd134  1  0.328766  0.964024  0.602186  1
  Cd  Cd135  1  0.000000  0.500000  0.000000  1
  Cd  Cd136  1  0.092388  0.184776  0.344277  1
  Cd  Cd137  1  0.399727  0.600273  0.948073  1
  Cd  Cd138  1  0.234459  0.468919  0.658468  1
  Cd  Cd139  1  0.723984  0.642793  0.750000  1
  Cd  Cd140  1  0.399727  0.799455  0.551927  1
  Cd  Cd141  1  0.466022  0.733011  0.250000  1
