# generated using pymatgen
data_Co2CuO4
_symmetry_space_group_name_H-M   'P 1'
_cell_length_a   5.82890580
_cell_length_b   5.82890580
_cell_length_c   5.82890580
_cell_angle_alpha   59.95147404
_cell_angle_beta   90.30833584
_cell_angle_gamma   120.30799919
_symmetry_Int_Tables_number   1
_chemical_formula_structural   Co2CuO4
_chemical_formula_sum   'Co4 Cu2 O8'
_cell_volume   139.65765260
_cell_formula_units_Z   2
loop_
 _symmetry_equiv_pos_site_id
 _symmetry_equiv_pos_as_xyz
  1  'x, y, z'
loop_
 _atom_site_type_symbol
 _atom_site_label
 _atom_site_symmetry_multiplicity
 _atom_site_fract_x
 _atom_site_fract_y
 _atom_site_fract_z
 _atom_site_occupancy
  Co  Co0  1  0.004499  0.000000  0.995501  1
  Co  Co1  1  0.625000  0.250000  0.625000  1
  Co  Co2  1  0.245501  0.500000  0.254499  1
  Co  Co3  1  0.125000  0.750000  0.625000  1
  Cu  Cu4  1  0.625000  0.250000  0.125000  1
  Cu  Cu5  1  0.625000  0.750000  0.625000  1
  O  O6  1  0.839474  0.232630  0.393157  1
  O  O7  1  0.379653  0.221071  0.399276  1
  O  O8  1  0.870347  0.278929  0.850724  1
  O  O9  1  0.870347  0.721071  0.408582  1
  O  O10  1  0.875788  0.732630  0.856843  1
  O  O11  1  0.410526  0.267370  0.856843  1
  O  O12  1  0.374212  0.767370  0.393157  1
  O  O13  1  0.379653  0.778929  0.841418  1
