# generated using pymatgen
data_Sm(BRh)4
_symmetry_space_group_name_H-M   'P 1'
_cell_length_a   5.36654576
_cell_length_b   5.36654576
_cell_length_c   7.51952100
_cell_angle_alpha   90.00000000
_cell_angle_beta   90.00000000
_cell_angle_gamma   90.00000000
_symmetry_Int_Tables_number   1
_chemical_formula_structural   Sm(BRh)4
_chemical_formula_sum   'Sm2 B8 Rh8'
_cell_volume   216.56080161
_cell_formula_units_Z   2
loop_
 _symmetry_equiv_pos_site_id
 _symmetry_equiv_pos_as_xyz
  1  'x, y, z'
loop_
 _atom_site_type_symbol
 _atom_site_label
 _atom_site_symmetry_multiplicity
 _atom_site_fract_x
 _atom_site_fract_y
 _atom_site_fract_z
 _atom_site_occupancy
  Sm  Sm0  1  0.749999  0.250000  0.250000  1
  Sm  Sm1  1  0.250000  0.749999  0.750000  1
  B  B2  1  0.250000  0.081413  0.099230  1
  B  B3  1  0.250000  0.418585  0.099230  1
  B  B4  1  0.581414  0.749999  0.400770  1
  B  B5  1  0.918586  0.749999  0.400770  1
  B  B6  1  0.081413  0.250000  0.599229  1
  B  B7  1  0.418585  0.250000  0.599229  1
  B  B8  1  0.749999  0.581414  0.900770  1
  B  B9  1  0.749999  0.918586  0.900770  1
  Rh  Rh10  1  0.001129  0.749999  0.106017  1
  Rh  Rh11  1  0.498871  0.749999  0.106017  1
  Rh  Rh12  1  0.250000  0.998872  0.393983  1
  Rh  Rh13  1  0.250000  0.501128  0.393983  1
  Rh  Rh14  1  0.749999  0.001129  0.606017  1
  Rh  Rh15  1  0.749999  0.498871  0.606017  1
  Rh  Rh16  1  0.998872  0.250000  0.893983  1
  Rh  Rh17  1  0.501128  0.250000  0.893983  1
