# generated using pymatgen
data_SmCrO4
_symmetry_space_group_name_H-M   'P 1'
_cell_length_a   6.10344364
_cell_length_b   6.10344364
_cell_length_c   6.10344363
_cell_angle_alpha   105.88586165
_cell_angle_beta   105.88586159
_cell_angle_gamma   116.90780705
_symmetry_Int_Tables_number   1
_chemical_formula_structural   SmCrO4
_chemical_formula_sum   'Sm2 Cr2 O8'
_cell_volume   172.78758323
_cell_formula_units_Z   2
loop_
 _symmetry_equiv_pos_site_id
 _symmetry_equiv_pos_as_xyz
  1  'x, y, z'
loop_
 _atom_site_type_symbol
 _atom_site_label
 _atom_site_symmetry_multiplicity
 _atom_site_fract_x
 _atom_site_fract_y
 _atom_site_fract_z
 _atom_site_occupancy
  O  O0  1  0.295909  0.227559  0.431649  1
  O  O1  1  0.864260  0.295909  0.568351  1
  O  O2  1  0.227559  0.295909  0.931649  1
  O  O3  1  0.295909  0.864260  0.068351  1
  O  O4  1  0.135740  0.704091  0.431649  1
  O  O5  1  0.704091  0.772441  0.568351  1
  O  O6  1  0.704091  0.135740  0.931649  1
  O  O7  1  0.772441  0.704091  0.068351  1
  Cr  Cr8  1  0.875000  0.125000  0.750000  1
  Cr  Cr9  1  0.125000  0.875000  0.250000  1
  Sm  Sm10  1  0.375000  0.625000  0.750000  1
  Sm  Sm11  1  0.625000  0.375000  0.250000  1
