# generated using pymatgen
data_Sm(CuO2)2
_symmetry_space_group_name_H-M   'P 1'
_cell_length_a   5.78749386
_cell_length_b   5.78792236
_cell_length_c   6.35033749
_cell_angle_alpha   117.09070243
_cell_angle_beta   117.08852969
_cell_angle_gamma   90.03989017
_symmetry_Int_Tables_number   1
_chemical_formula_structural   Sm(CuO2)2
_chemical_formula_sum   'Sm2 Cu4 O8'
_cell_volume   162.69492868
_cell_formula_units_Z   2
loop_
 _symmetry_equiv_pos_site_id
 _symmetry_equiv_pos_as_xyz
  1  'x, y, z'
loop_
 _atom_site_type_symbol
 _atom_site_label
 _atom_site_symmetry_multiplicity
 _atom_site_fract_x
 _atom_site_fract_y
 _atom_site_fract_z
 _atom_site_occupancy
  O  O0  1  0.712038  0.530450  0.852453  1
  O  O1  1  0.140416  0.822004  0.852453  1
  O  O2  1  0.287962  0.469550  0.147547  1
  O  O3  1  0.859584  0.177996  0.147547  1
  O  O4  1  0.530686  0.140517  0.352438  1
  O  O5  1  0.821752  0.711921  0.352438  1
  O  O6  1  0.178248  0.288079  0.647562  1
  O  O7  1  0.469314  0.859483  0.647562  1
  Cu  Cu8  1  0.500000  0.000000  0.000000  1
  Cu  Cu9  1  0.500000  0.500000  0.000000  1
  Cu  Cu10  1  0.000000  0.500000  0.500000  1
  Cu  Cu11  1  0.500000  0.500000  0.500000  1
  Sm  Sm12  1  0.875003  0.125003  0.750006  1
  Sm  Sm13  1  0.124997  0.874997  0.249994  1
