# generated using pymatgen
data_Sm(Mo4O7)2
_symmetry_space_group_name_H-M   'P 1'
_cell_length_a   8.22477900
_cell_length_b   8.22477922
_cell_length_c   9.38740246
_cell_angle_alpha   90.00000000
_cell_angle_beta   90.00000000
_cell_angle_gamma   97.94785399
_symmetry_Int_Tables_number   1
_chemical_formula_structural   Sm(Mo4O7)2
_chemical_formula_sum   'Sm2 Mo16 O28'
_cell_volume   628.92964480
_cell_formula_units_Z   2
loop_
 _symmetry_equiv_pos_site_id
 _symmetry_equiv_pos_as_xyz
  1  'x, y, z'
loop_
 _atom_site_type_symbol
 _atom_site_label
 _atom_site_symmetry_multiplicity
 _atom_site_fract_x
 _atom_site_fract_y
 _atom_site_fract_z
 _atom_site_occupancy
  O  O0  1  0.688386  0.311614  0.500000  1
  O  O1  1  0.188386  0.811613  0.000000  1
  O  O2  1  0.216391  0.783609  0.500000  1
  O  O3  1  0.716391  0.283609  0.000000  1
  O  O4  1  0.814285  0.666994  0.503361  1
  O  O5  1  0.333006  0.185715  0.496639  1
  O  O6  1  0.314285  0.166994  0.996638  1
  O  O7  1  0.833006  0.685715  0.003362  1
  O  O8  1  0.663125  0.520293  0.747821  1
  O  O9  1  0.479707  0.336876  0.252180  1
  O  O10  1  0.163125  0.020292  0.752180  1
  O  O11  1  0.979708  0.836875  0.247820  1
  O  O12  1  0.821689  0.915646  0.706302  1
  O  O13  1  0.084354  0.178311  0.293698  1
  O  O14  1  0.321689  0.415645  0.793698  1
  O  O15  1  0.584355  0.678311  0.206302  1
  O  O16  1  0.105809  0.429409  0.520078  1
  O  O17  1  0.570591  0.894190  0.479922  1
  O  O18  1  0.862480  0.453346  0.242340  1
  O  O19  1  0.546655  0.137520  0.757660  1
  O  O20  1  0.362480  0.953346  0.257660  1
  O  O21  1  0.046655  0.637521  0.742340  1
  O  O22  1  0.238279  0.561109  0.247552  1
  O  O23  1  0.605809  0.929409  0.979923  1
  O  O24  1  0.738279  0.061110  0.252448  1
  O  O25  1  0.938890  0.261722  0.747552  1
  O  O26  1  0.070591  0.394191  0.020077  1
  O  O27  1  0.438890  0.761721  0.752448  1
  Mo  Mo28  1  0.881464  0.463088  0.629586  1
  Mo  Mo29  1  0.536912  0.118537  0.370414  1
  Mo  Mo30  1  0.381464  0.963088  0.870414  1
  Mo  Mo31  1  0.036912  0.618537  0.129586  1
  Mo  Mo32  1  0.491467  0.338143  0.643325  1
  Mo  Mo33  1  0.661857  0.508533  0.356675  1
  Mo  Mo34  1  0.991467  0.838143  0.856676  1
  Mo  Mo35  1  0.161856  0.008534  0.143324  1
  Mo  Mo36  1  0.632157  0.742291  0.627155  1
  Mo  Mo37  1  0.896893  0.240658  0.145726  1
  Mo  Mo38  1  0.132158  0.242292  0.872844  1
  Mo  Mo39  1  0.757708  0.867842  0.127156  1
  Mo  Mo40  1  0.259342  0.603107  0.645726  1
  Mo  Mo41  1  0.396893  0.740659  0.354274  1
  Mo  Mo42  1  0.759341  0.103106  0.854274  1
  Mo  Mo43  1  0.257708  0.367842  0.372845  1
  Sm  Sm44  1  0.043618  0.956383  0.500000  1
  Sm  Sm45  1  0.543618  0.456382  0.000000  1
