# generated using pymatgen
data_CoMoO4
_symmetry_space_group_name_H-M   'P 1'
_cell_length_a   6.63305969
_cell_length_b   6.63376896
_cell_length_c   7.81613078
_cell_angle_alpha   72.63941057
_cell_angle_beta   72.66153656
_cell_angle_gamma   85.26846109
_symmetry_Int_Tables_number   1
_chemical_formula_structural   CoMoO4
_chemical_formula_sum   'Co4 Mo4 O16'
_cell_volume   313.33590428
_cell_formula_units_Z   4
loop_
 _symmetry_equiv_pos_site_id
 _symmetry_equiv_pos_as_xyz
  1  'x, y, z'
loop_
 _atom_site_type_symbol
 _atom_site_label
 _atom_site_symmetry_multiplicity
 _atom_site_fract_x
 _atom_site_fract_y
 _atom_site_fract_z
 _atom_site_occupancy
  Co  Co0  1  0.309463  0.309457  0.841136  1
  Co  Co1  1  0.690397  0.690547  0.158887  1
  Co  Co2  1  0.311560  0.688720  0.499874  1
  Co  Co3  1  0.688510  0.311304  0.500130  1
  Mo  Mo4  1  0.715703  0.715526  0.641600  1
  Mo  Mo5  1  0.284362  0.284531  0.358402  1
  Mo  Mo6  1  0.715324  0.284722  1.000037  1
  Mo  Mo7  1  0.284610  0.715275  -0.000066  1
  O  O8  1  0.991473  0.683701  0.581450  1
  O  O9  1  0.346415  0.647800  0.237979  1
  O  O10  1  0.319436  0.991246  0.923636  1
  O  O11  1  0.651721  0.651199  0.914807  1
  O  O12  1  0.648174  0.346626  0.237842  1
  O  O13  1  0.350360  0.350256  0.559455  1
  O  O14  1  0.683636  0.991223  0.581610  1
  O  O15  1  0.653551  0.352000  0.762067  1
  O  O16  1  0.991362  0.319147  0.923716  1
  O  O17  1  0.649670  0.649746  0.440612  1
  O  O18  1  0.351902  0.653470  0.762119  1
  O  O19  1  0.348375  0.348595  0.085173  1
  O  O20  1  0.008587  0.316374  0.418520  1
  O  O21  1  0.008573  0.680986  0.076259  1
  O  O22  1  0.316394  0.008839  0.418419  1
  O  O23  1  0.680447  0.008712  0.076337  1
