# generated using pymatgen
data_SmNbO4
_symmetry_space_group_name_H-M   'P 1'
_cell_length_a   5.21643780
_cell_length_b   5.43876532
_cell_length_c   6.74908742
_cell_angle_alpha   112.26324842
_cell_angle_beta   111.18411599
_cell_angle_gamma   93.56994063
_symmetry_Int_Tables_number   1
_chemical_formula_structural   SmNbO4
_chemical_formula_sum   'Sm2 Nb2 O8'
_cell_volume   160.76770509
_cell_formula_units_Z   2
loop_
 _symmetry_equiv_pos_site_id
 _symmetry_equiv_pos_as_xyz
  1  'x, y, z'
loop_
 _atom_site_type_symbol
 _atom_site_label
 _atom_site_symmetry_multiplicity
 _atom_site_fract_x
 _atom_site_fract_y
 _atom_site_fract_z
 _atom_site_occupancy
  O  O0  1  0.978872  0.786018  0.566540  1
  O  O1  1  0.587668  0.280522  0.566540  1
  O  O2  1  0.021128  0.213982  0.433460  1
  O  O3  1  0.412332  0.719478  0.433460  1
  O  O4  1  0.205946  0.364696  0.917097  1
  O  O5  1  0.711152  0.052402  0.917097  1
  O  O6  1  0.794054  0.635304  0.082903  1
  O  O7  1  0.288848  0.947598  0.082903  1
  Nb  Nb8  1  0.858674  0.108674  0.717349  1
  Nb  Nb9  1  0.141326  0.891326  0.282651  1
  Sm  Sm10  1  0.377969  0.627969  0.755937  1
  Sm  Sm11  1  0.622031  0.372031  0.244063  1
