# generated using pymatgen
data_SmTaO4
_symmetry_space_group_name_H-M   'P 1'
_cell_length_a   3.92906379
_cell_length_b   7.75196598
_cell_length_c   5.55232396
_cell_angle_alpha   90.00000000
_cell_angle_beta   90.00000000
_cell_angle_gamma   104.68020203
_symmetry_Int_Tables_number   1
_chemical_formula_structural   SmTaO4
_chemical_formula_sum   'Sm2 Ta2 O8'
_cell_volume   163.59189614
_cell_formula_units_Z   2
loop_
 _symmetry_equiv_pos_site_id
 _symmetry_equiv_pos_as_xyz
  1  'x, y, z'
loop_
 _atom_site_type_symbol
 _atom_site_label
 _atom_site_symmetry_multiplicity
 _atom_site_fract_x
 _atom_site_fract_y
 _atom_site_fract_z
 _atom_site_occupancy
  Sm  Sm0  1  0.183263  0.366525  0.133007  1
  Sm  Sm1  1  0.816737  0.633475  0.633007  1
  Ta  Ta2  1  0.415134  0.830270  0.190574  1
  Ta  Ta3  1  0.584866  0.169730  0.690574  1
  O  O4  1  0.092617  0.185235  0.732923  1
  O  O5  1  0.299215  0.598429  0.404315  1
  O  O6  1  0.334870  0.669740  0.917842  1
  O  O7  1  0.470535  0.941069  0.536541  1
  O  O8  1  0.529465  0.058931  0.036541  1
  O  O9  1  0.665130  0.330260  0.417842  1
  O  O10  1  0.700785  0.401571  0.904315  1
  O  O11  1  0.907383  0.814765  0.232923  1
