# generated using pymatgen
data_SmVO4
_symmetry_space_group_name_H-M   'P 1'
_cell_length_a   6.12035106
_cell_length_b   6.12035106
_cell_length_c   6.12035107
_cell_angle_alpha   106.09915623
_cell_angle_beta   106.09915619
_cell_angle_gamma   116.44886898
_symmetry_Int_Tables_number   1
_chemical_formula_structural   SmVO4
_chemical_formula_sum   'Sm2 V2 O8'
_cell_volume   174.49865285
_cell_formula_units_Z   2
loop_
 _symmetry_equiv_pos_site_id
 _symmetry_equiv_pos_as_xyz
  1  'x, y, z'
loop_
 _atom_site_type_symbol
 _atom_site_label
 _atom_site_symmetry_multiplicity
 _atom_site_fract_x
 _atom_site_fract_y
 _atom_site_fract_z
 _atom_site_occupancy
  O  O0  1  0.798125  0.366355  0.068230  1
  O  O1  1  0.798125  0.729895  0.431770  1
  O  O2  1  0.633645  0.201875  0.431770  1
  O  O3  1  0.201875  0.270105  0.568230  1
  O  O4  1  0.201875  0.633645  0.931770  1
  O  O5  1  0.270105  0.201875  0.068230  1
  O  O6  1  0.729895  0.798125  0.931770  1
  O  O7  1  0.366355  0.798125  0.568230  1
  V  V8  1  0.625000  0.375000  0.250000  1
  V  V9  1  0.375000  0.625000  0.750000  1
  Sm  Sm10  1  0.875000  0.125000  0.750000  1
  Sm  Sm11  1  0.125000  0.875000  0.250000  1
