# generated using pymatgen
data_Co2Mo3O8
_symmetry_space_group_name_H-M   'P 1'
_cell_length_a   5.87136229
_cell_length_b   5.87136229
_cell_length_c   10.02093675
_cell_angle_alpha   90.00000000
_cell_angle_beta   90.00000000
_cell_angle_gamma   120.00000003
_symmetry_Int_Tables_number   1
_chemical_formula_structural   Co2Mo3O8
_chemical_formula_sum   'Co4 Mo6 O16'
_cell_volume   299.16908363
_cell_formula_units_Z   2
loop_
 _symmetry_equiv_pos_site_id
 _symmetry_equiv_pos_as_xyz
  1  'x, y, z'
loop_
 _atom_site_type_symbol
 _atom_site_label
 _atom_site_symmetry_multiplicity
 _atom_site_fract_x
 _atom_site_fract_y
 _atom_site_fract_z
 _atom_site_occupancy
  O  O0  1  0.831958  0.168042  0.132403  1
  O  O1  1  0.663917  0.831958  0.632404  1
  O  O2  1  0.168042  0.336083  0.632404  1
  O  O3  1  0.831958  0.663916  0.132403  1
  O  O4  1  0.336084  0.168042  0.132403  1
  O  O5  1  0.168041  0.831958  0.632404  1
  O  O6  1  0.512159  0.487841  0.865053  1
  O  O7  1  0.024316  0.512158  0.365054  1
  O  O8  1  0.487842  0.975684  0.365054  1
  O  O9  1  0.512158  0.024317  0.865053  1
  O  O10  1  0.000000  0.000000  0.392398  1
  O  O11  1  0.000000  0.000000  0.892398  1
  O  O12  1  0.333333  0.666666  0.143931  1
  O  O13  1  0.975683  0.487841  0.865053  1
  O  O14  1  0.487842  0.512158  0.365054  1
  O  O15  1  0.666666  0.333333  0.643932  1
  Co  Co16  1  0.333333  0.666666  0.946959  1
  Co  Co17  1  0.666666  0.333333  0.446958  1
  Co  Co18  1  0.333333  0.666666  0.515689  1
  Co  Co19  1  0.666666  0.333333  0.015689  1
  Mo  Mo20  1  0.145980  0.854019  0.249218  1
  Mo  Mo21  1  0.291963  0.145981  0.749217  1
  Mo  Mo22  1  0.854019  0.708038  0.749217  1
  Mo  Mo23  1  0.145981  0.291961  0.249218  1
  Mo  Mo24  1  0.708038  0.854019  0.249218  1
  Mo  Mo25  1  0.854019  0.145981  0.749217  1
