# generated using pymatgen
data_SmCu6
_symmetry_space_group_name_H-M   'P 1'
_cell_length_a   5.03038806
_cell_length_b   8.05754246
_cell_length_c   10.10427509
_cell_angle_alpha   90.00000000
_cell_angle_beta   90.00000000
_cell_angle_gamma   90.00000000
_symmetry_Int_Tables_number   1
_chemical_formula_structural   SmCu6
_chemical_formula_sum   'Sm4 Cu24'
_cell_volume   409.55219074
_cell_formula_units_Z   4
loop_
 _symmetry_equiv_pos_site_id
 _symmetry_equiv_pos_as_xyz
  1  'x, y, z'
loop_
 _atom_site_type_symbol
 _atom_site_label
 _atom_site_symmetry_multiplicity
 _atom_site_fract_x
 _atom_site_fract_y
 _atom_site_fract_z
 _atom_site_occupancy
  Cu  Cu0  1  0.750000  0.853538  0.857547  1
  Cu  Cu1  1  0.250000  0.146462  0.142453  1
  Cu  Cu2  1  0.750000  0.353538  0.642453  1
  Cu  Cu3  1  0.250000  0.646462  0.357547  1
  Cu  Cu4  1  0.750000  0.183509  0.244480  1
  Cu  Cu5  1  0.250000  0.816491  0.755520  1
  Cu  Cu6  1  0.750000  0.683509  0.255520  1
  Cu  Cu7  1  0.250000  0.316491  0.744480  1
  Cu  Cu8  1  0.750000  0.438387  0.404241  1
  Cu  Cu9  1  0.250000  0.561613  0.595759  1
  Cu  Cu10  1  0.750000  0.938387  0.095759  1
  Cu  Cu11  1  0.250000  0.061613  0.904241  1
  Cu  Cu12  1  0.750000  0.098542  0.483375  1
  Cu  Cu13  1  0.250000  0.901458  0.516625  1
  Cu  Cu14  1  0.750000  0.598542  0.016625  1
  Cu  Cu15  1  0.250000  0.401458  0.983375  1
  Cu  Cu16  1  0.994333  0.564672  0.809044  1
  Cu  Cu17  1  0.494333  0.435328  0.190956  1
  Cu  Cu18  1  0.505667  0.064672  0.690956  1
  Cu  Cu19  1  0.005667  0.935328  0.309044  1
  Cu  Cu20  1  0.005667  0.435328  0.190956  1
  Cu  Cu21  1  0.505667  0.564672  0.809044  1
  Cu  Cu22  1  0.494333  0.935328  0.309044  1
  Cu  Cu23  1  0.994333  0.064672  0.690956  1
  Sm  Sm24  1  0.750000  0.739818  0.564492  1
  Sm  Sm25  1  0.250000  0.260182  0.435508  1
  Sm  Sm26  1  0.750000  0.239818  0.935508  1
  Sm  Sm27  1  0.250000  0.760182  0.064492  1
