# generated using pymatgen
data_SmCu
_symmetry_space_group_name_H-M   'P 1'
_cell_length_a   7.22417309
_cell_length_b   4.51671826
_cell_length_c   5.47434144
_cell_angle_alpha   90.00000000
_cell_angle_beta   90.00000000
_cell_angle_gamma   90.00000000
_symmetry_Int_Tables_number   1
_chemical_formula_structural   SmCu
_chemical_formula_sum   'Sm4 Cu4'
_cell_volume   178.62532242
_cell_formula_units_Z   4
loop_
 _symmetry_equiv_pos_site_id
 _symmetry_equiv_pos_as_xyz
  1  'x, y, z'
loop_
 _atom_site_type_symbol
 _atom_site_label
 _atom_site_symmetry_multiplicity
 _atom_site_fract_x
 _atom_site_fract_y
 _atom_site_fract_z
 _atom_site_occupancy
  Sm  Sm0  1  0.180197  0.250000  0.130101  1
  Sm  Sm1  1  0.319802  0.750000  0.630101  1
  Sm  Sm2  1  0.680199  0.250000  0.369898  1
  Sm  Sm3  1  0.819802  0.750000  0.869900  1
  Cu  Cu4  1  0.033392  0.250000  0.620164  1
  Cu  Cu5  1  0.466607  0.750000  0.120164  1
  Cu  Cu6  1  0.533393  0.250000  0.879836  1
  Cu  Cu7  1  0.966606  0.750000  0.379836  1
