# generated using pymatgen
data_Co2NiO4
_symmetry_space_group_name_H-M   'P 1'
_cell_length_a   5.79206242
_cell_length_b   5.82253218
_cell_length_c   5.79206258
_cell_angle_alpha   59.82583305
_cell_angle_beta   60.26016549
_cell_angle_gamma   59.82583153
_symmetry_Int_Tables_number   1
_chemical_formula_structural   Co2NiO4
_chemical_formula_sum   'Co4 Ni2 O8'
_cell_volume   138.02480350
_cell_formula_units_Z   2
loop_
 _symmetry_equiv_pos_site_id
 _symmetry_equiv_pos_as_xyz
  1  'x, y, z'
loop_
 _atom_site_type_symbol
 _atom_site_label
 _atom_site_symmetry_multiplicity
 _atom_site_fract_x
 _atom_site_fract_y
 _atom_site_fract_z
 _atom_site_occupancy
  Co  Co0  1  0.132988  0.117012  0.132988  1
  Co  Co1  1  0.500000  0.000000  0.500000  1
  Co  Co2  1  0.500000  0.500000  0.500000  1
  Co  Co3  1  0.867012  0.882988  0.867012  1
  Ni  Ni4  1  0.000000  0.500000  0.500000  1
  Ni  Ni5  1  0.500000  0.500000  0.000000  1
  O  O6  1  0.264697  0.246082  0.264697  1
  O  O7  1  0.275683  0.250163  0.723991  1
  O  O8  1  0.264697  0.724523  0.264697  1
  O  O9  1  0.723991  0.250163  0.275683  1
  O  O10  1  0.276009  0.749837  0.724317  1
  O  O11  1  0.735303  0.275477  0.735303  1
  O  O12  1  0.724317  0.749837  0.276009  1
  O  O13  1  0.735303  0.753918  0.735303  1
