# generated using pymatgen
data_SmMo5O8
_symmetry_space_group_name_H-M   'P 1'
_cell_length_a   8.38617407
_cell_length_b   9.27803768
_cell_length_c   10.74733988
_cell_angle_alpha   90.00000000
_cell_angle_beta   109.20006718
_cell_angle_gamma   90.00000000
_symmetry_Int_Tables_number   1
_chemical_formula_structural   SmMo5O8
_chemical_formula_sum   'Sm4 Mo20 O32'
_cell_volume   789.70688197
_cell_formula_units_Z   4
loop_
 _symmetry_equiv_pos_site_id
 _symmetry_equiv_pos_as_xyz
  1  'x, y, z'
loop_
 _atom_site_type_symbol
 _atom_site_label
 _atom_site_symmetry_multiplicity
 _atom_site_fract_x
 _atom_site_fract_y
 _atom_site_fract_z
 _atom_site_occupancy
  O  O0  1  0.419598  0.497980  0.865712  1
  O  O1  1  0.580402  -0.002020  0.634288  1
  O  O2  1  0.580402  0.502020  0.134288  1
  O  O3  1  0.419598  1.002020  0.365712  1
  O  O4  1  0.624931  0.717879  0.326587  1
  O  O5  1  0.375069  0.217879  0.173413  1
  O  O6  1  0.375069  0.282121  0.673413  1
  O  O7  1  0.624931  0.782121  0.826587  1
  O  O8  1  0.207950  0.706259  0.682106  1
  O  O9  1  0.792050  0.206259  0.817894  1
  O  O10  1  0.792050  0.293741  0.317894  1
  O  O11  1  0.207950  0.793741  0.182106  1
  O  O12  1  0.809921  0.710447  0.589749  1
  O  O13  1  0.190079  0.210447  0.910251  1
  O  O14  1  0.190079  0.289553  0.410251  1
  O  O15  1  0.809921  0.789553  0.089749  1
  O  O16  1  0.396119  0.749168  0.509533  1
  O  O17  1  0.603881  0.249168  0.990467  1
  O  O18  1  0.603881  0.250832  0.490467  1
  O  O19  1  0.396119  0.750832  0.009533  1
  O  O20  1  0.987570  0.488716  0.768564  1
  O  O21  1  0.012430  0.988716  0.731436  1
  O  O22  1  0.012430  0.511284  0.231436  1
  O  O23  1  0.987570  0.011284  0.268564  1
  O  O24  1  0.405589  0.000719  0.853975  1
  O  O25  1  0.594411  0.500719  0.646025  1
  O  O26  1  0.594411  0.999281  0.146025  1
  O  O27  1  0.405589  0.499281  0.353975  1
  O  O28  1  1.009563  0.747195  0.906509  1
  O  O29  1  -0.009563  0.247195  0.593491  1
  O  O30  1  -0.009563  0.252805  0.093491  1
  O  O31  1  1.009563  0.752805  0.406509  1
  Mo  Mo32  1  1.009461  0.645873  0.078129  1
  Mo  Mo33  1  -0.009461  0.145873  0.421871  1
  Mo  Mo34  1  -0.009461  0.354127  0.921871  1
  Mo  Mo35  1  1.009461  0.854127  0.578129  1
  Mo  Mo36  1  0.796736  0.639433  0.772093  1
  Mo  Mo37  1  0.203264  0.139433  0.727907  1
  Mo  Mo38  1  0.203264  0.360567  0.227907  1
  Mo  Mo39  1  0.796736  0.860567  0.272093  1
  Mo  Mo40  1  0.198259  0.624793  0.863611  1
  Mo  Mo41  1  0.801741  0.124793  0.636389  1
  Mo  Mo42  1  0.801741  0.375207  0.136389  1
  Mo  Mo43  1  0.198259  0.875207  0.363611  1
  Mo  Mo44  1  0.402066  0.639066  0.188560  1
  Mo  Mo45  1  0.597934  0.139066  0.311440  1
  Mo  Mo46  1  0.597934  0.360934  0.811440  1
  Mo  Mo47  1  0.402066  0.860934  0.688560  1
  Mo  Mo48  1  0.609368  0.648204  0.982016  1
  Mo  Mo49  1  0.390632  0.148204  0.517984  1
  Mo  Mo50  1  0.390632  0.351795  0.017984  1
  Mo  Mo51  1  0.609368  0.851796  0.482016  1
  Sm  Sm52  1  0.305372  0.985118  0.038383  1
  Sm  Sm53  1  0.694628  0.485118  0.461617  1
  Sm  Sm54  1  0.694628  0.014882  0.961617  1
  Sm  Sm55  1  0.305372  0.514882  0.538383  1
