# generated using pymatgen
data_Sm2(MoO4)3
_symmetry_space_group_name_H-M   'P 1'
_cell_length_a   7.02303731
_cell_length_b   7.02303780
_cell_length_c   11.62593568
_cell_angle_alpha   100.61579454
_cell_angle_beta   100.61579510
_cell_angle_gamma   112.74177863
_symmetry_Int_Tables_number   1
_chemical_formula_structural   Sm2(MoO4)3
_chemical_formula_sum   'Sm4 Mo6 O24'
_cell_volume   498.73023450
_cell_formula_units_Z   2
loop_
 _symmetry_equiv_pos_site_id
 _symmetry_equiv_pos_as_xyz
  1  'x, y, z'
loop_
 _atom_site_type_symbol
 _atom_site_label
 _atom_site_symmetry_multiplicity
 _atom_site_fract_x
 _atom_site_fract_y
 _atom_site_fract_z
 _atom_site_occupancy
  Sm  Sm0  1  0.952328  0.196637  0.908472  1
  Sm  Sm1  1  0.303363  0.547672  0.591528  1
  Sm  Sm2  1  0.696637  0.452328  0.408472  1
  Sm  Sm3  1  0.047672  0.803363  0.091528  1
  Mo  Mo4  1  0.513933  0.300380  0.052674  1
  Mo  Mo5  1  0.199620  0.986067  0.447326  1
  Mo  Mo6  1  0.486067  0.699620  0.947326  1
  Mo  Mo7  1  0.800380  0.013933  0.552674  1
  Mo  Mo8  1  0.119312  0.380688  0.250000  1
  Mo  Mo9  1  0.880688  0.619312  0.750000  1
  O  O10  1  0.371517  0.274406  0.460374  1
  O  O11  1  0.010779  0.096704  0.217802  1
  O  O12  1  0.899836  0.825647  0.421215  1
  O  O13  1  0.609740  0.177535  0.945668  1
  O  O14  1  0.774406  0.871517  0.960374  1
  O  O15  1  0.645055  0.292625  0.199063  1
  O  O16  1  0.968818  0.551375  0.889054  1
  O  O17  1  0.225594  0.128484  0.039626  1
  O  O18  1  0.792625  0.145055  0.699063  1
  O  O19  1  0.322466  0.890260  0.554332  1
  O  O20  1  0.403296  0.489221  0.282198  1
  O  O21  1  0.354945  0.707375  0.800937  1
  O  O22  1  0.989221  0.903296  0.782198  1
  O  O23  1  0.677535  0.109740  0.445668  1
  O  O24  1  0.207375  0.854945  0.300937  1
  O  O25  1  0.051375  0.468818  0.389054  1
  O  O26  1  0.674353  0.600164  0.078785  1
  O  O27  1  0.628483  0.725594  0.539626  1
  O  O28  1  0.390260  0.822465  0.054332  1
  O  O29  1  0.031182  0.448625  0.110946  1
  O  O30  1  0.948625  0.531182  0.610946  1
  O  O31  1  0.596704  0.510779  0.717802  1
  O  O32  1  0.325647  0.399836  0.921215  1
  O  O33  1  0.100164  0.174353  0.578785  1
