# generated using pymatgen
data_Co(NiO2)2
_symmetry_space_group_name_H-M   'P 1'
_cell_length_a   5.04045992
_cell_length_b   5.87605728
_cell_length_c   9.50396413
_cell_angle_alpha   90.00000000
_cell_angle_beta   87.89094678
_cell_angle_gamma   90.00000000
_symmetry_Int_Tables_number   1
_chemical_formula_structural   Co(NiO2)2
_chemical_formula_sum   'Co4 Ni8 O16'
_cell_volume   281.29802311
_cell_formula_units_Z   4
loop_
 _symmetry_equiv_pos_site_id
 _symmetry_equiv_pos_as_xyz
  1  'x, y, z'
loop_
 _atom_site_type_symbol
 _atom_site_label
 _atom_site_symmetry_multiplicity
 _atom_site_fract_x
 _atom_site_fract_y
 _atom_site_fract_z
 _atom_site_occupancy
  Co  Co0  1  0.265972  0.142711  0.528527  1
  Co  Co1  1  0.234028  0.642711  0.971473  1
  Co  Co2  1  0.765972  0.357289  0.028527  1
  Co  Co3  1  0.734028  0.857289  0.471473  1
  Ni  Ni4  1  0.247588  0.130268  0.970416  1
  Ni  Ni5  1  0.256054  0.619798  0.251793  1
  Ni  Ni6  1  0.252412  0.630268  0.529584  1
  Ni  Ni7  1  0.243946  0.119798  0.248207  1
  Ni  Ni8  1  0.756054  0.880202  0.751793  1
  Ni  Ni9  1  0.747588  0.369732  0.470416  1
  Ni  Ni10  1  0.743946  0.380202  0.748207  1
  Ni  Ni11  1  0.752412  0.869732  0.029584  1
  O  O12  1  0.073782  0.867129  0.875401  1
  O  O13  1  0.910258  0.121900  0.613075  1
  O  O14  1  0.115191  0.367316  0.387268  1
  O  O15  1  0.052550  0.389226  0.884733  1
  O  O16  1  0.447450  0.889226  0.615267  1
  O  O17  1  0.384809  0.867316  0.112732  1
  O  O18  1  0.589742  0.621900  0.886925  1
  O  O19  1  0.426218  0.367129  0.624599  1
  O  O20  1  0.573782  0.632871  0.375401  1
  O  O21  1  0.410258  0.378100  0.113075  1
  O  O22  1  0.615191  0.132684  0.887268  1
  O  O23  1  0.552550  0.110774  0.384733  1
  O  O24  1  0.947450  0.610774  0.115267  1
  O  O25  1  0.884809  0.632684  0.612732  1
  O  O26  1  0.089742  0.878100  0.386925  1
  O  O27  1  0.926218  0.132871  0.124599  1
