# generated using pymatgen
data_Sm2Ti2O7
_symmetry_space_group_name_H-M   'P 1'
_cell_length_a   7.29024874
_cell_length_b   7.29024875
_cell_length_c   7.29024875
_cell_angle_alpha   60.00000004
_cell_angle_beta   60.00000000
_cell_angle_gamma   60.00000001
_symmetry_Int_Tables_number   1
_chemical_formula_structural   Sm2Ti2O7
_chemical_formula_sum   'Sm4 Ti4 O14'
_cell_volume   273.97569864
_cell_formula_units_Z   2
loop_
 _symmetry_equiv_pos_site_id
 _symmetry_equiv_pos_as_xyz
  1  'x, y, z'
loop_
 _atom_site_type_symbol
 _atom_site_label
 _atom_site_symmetry_multiplicity
 _atom_site_fract_x
 _atom_site_fract_y
 _atom_site_fract_z
 _atom_site_occupancy
  O  O0  1  0.625000  0.625000  0.625000  1
  O  O1  1  0.375000  0.375000  0.375000  1
  O  O2  1  0.326870  0.923130  0.923130  1
  O  O3  1  0.076870  0.673130  0.673130  1
  O  O4  1  0.923130  0.326870  0.923130  1
  O  O5  1  0.923130  0.923130  0.326870  1
  O  O6  1  0.326870  0.326870  0.923130  1
  O  O7  1  0.326870  0.923130  0.326870  1
  O  O8  1  0.923130  0.326870  0.326870  1
  O  O9  1  0.673130  0.673130  0.076870  1
  O  O10  1  0.076870  0.076870  0.673130  1
  O  O11  1  0.673130  0.076870  0.076870  1
  O  O12  1  0.673130  0.076870  0.673130  1
  O  O13  1  0.076870  0.673130  0.076870  1
  Ti  Ti14  1  0.000000  0.500000  0.000000  1
  Ti  Ti15  1  0.500000  0.000000  0.000000  1
  Ti  Ti16  1  0.000000  0.000000  0.500000  1
  Ti  Ti17  1  0.000000  0.000000  0.000000  1
  Sm  Sm18  1  0.500000  0.000000  0.500000  1
  Sm  Sm19  1  0.000000  0.500000  0.500000  1
  Sm  Sm20  1  0.500000  0.500000  0.000000  1
  Sm  Sm21  1  0.500000  0.500000  0.500000  1
