# generated using pymatgen
data_Sm2Mo4O15
_symmetry_space_group_name_H-M   'P 1'
_cell_length_a   9.52754993
_cell_length_b   11.14245477
_cell_length_c   11.70021965
_cell_angle_alpha   104.51898371
_cell_angle_beta   109.21021845
_cell_angle_gamma   108.92047929
_symmetry_Int_Tables_number   1
_chemical_formula_structural   Sm2Mo4O15
_chemical_formula_sum   'Sm6 Mo12 O45'
_cell_volume   1016.88989847
_cell_formula_units_Z   3
loop_
 _symmetry_equiv_pos_site_id
 _symmetry_equiv_pos_as_xyz
  1  'x, y, z'
loop_
 _atom_site_type_symbol
 _atom_site_label
 _atom_site_symmetry_multiplicity
 _atom_site_fract_x
 _atom_site_fract_y
 _atom_site_fract_z
 _atom_site_occupancy
  O  O0  1  0.453060  0.426187  0.197358  1
  O  O1  1  0.546940  0.573813  0.802642  1
  O  O2  1  0.325007  0.608724  0.161999  1
  O  O3  1  0.674993  0.391276  0.838001  1
  O  O4  1  0.384271  0.144548  0.067720  1
  O  O5  1  0.615729  0.855452  0.932280  1
  O  O6  1  0.054446  0.918586  0.890258  1
  O  O7  1  0.945554  0.081414  0.109742  1
  O  O8  1  0.334505  0.854800  0.940829  1
  O  O9  1  0.665495  0.145200  0.059171  1
  O  O10  1  0.415065  0.557822  0.958212  1
  O  O11  1  0.584935  0.442178  0.041788  1
  O  O12  1  0.092419  0.506756  0.801641  1
  O  O13  1  0.907581  0.493244  0.198359  1
  O  O14  1  0.190917  0.462110  0.596636  1
  O  O15  1  0.113717  0.381506  0.167442  1
  O  O16  1  0.221281  0.306548  0.375235  1
  O  O17  1  0.886283  0.618494  0.832558  1
  O  O18  1  0.414656  0.162149  0.519027  1
  O  O19  1  0.585344  0.837851  0.480973  1
  O  O20  1  0.335483  0.286281  0.752259  1
  O  O21  1  0.664517  0.713719  0.247741  1
  O  O22  1  0.284554  0.018502  0.783016  1
  O  O23  1  0.715446  0.981498  0.216984  1
  O  O24  1  0.966450  0.843795  0.512990  1
  O  O25  1  0.033550  0.156205  0.487010  1
  O  O26  1  0.030887  0.932193  0.342823  1
  O  O27  1  0.969113  0.067807  0.657177  1
  O  O28  1  0.655884  0.094776  0.447943  1
  O  O29  1  0.344116  0.905224  0.552057  1
  O  O30  1  0.526102  0.267131  0.339249  1
  O  O31  1  0.473898  0.732869  0.660751  1
  O  O32  1  0.752867  0.378065  0.620185  1
  O  O33  1  0.247133  0.621935  0.379815  1
  O  O34  1  0.000000  0.500000  0.000000  1
  O  O35  1  0.218667  0.012382  0.201038  1
  O  O36  1  0.781333  0.987618  0.798962  1
  O  O37  1  0.148048  0.744512  0.221293  1
  O  O38  1  0.851952  0.255488  0.778707  1
  O  O39  1  0.881273  0.791248  0.052153  1
  O  O40  1  0.118727  0.208752  0.947847  1
  O  O41  1  0.104294  0.697138  0.660097  1
  O  O42  1  0.895706  0.302862  0.339903  1
  O  O43  1  0.778719  0.693452  0.624765  1
  O  O44  1  0.809083  0.537890  0.403364  1
  Mo  Mo45  1  0.476872  0.563748  0.132536  1
  Mo  Mo46  1  0.523128  0.436252  0.867464  1
  Mo  Mo47  1  0.266393  0.983261  0.919994  1
  Mo  Mo48  1  0.733607  0.016739  0.080006  1
  Mo  Mo49  1  0.092234  0.534655  0.181694  1
  Mo  Mo50  1  0.907766  0.465345  0.818306  1
  Mo  Mo51  1  0.083966  0.309798  0.448549  1
  Mo  Mo52  1  0.916034  0.690202  0.551451  1
  Mo  Mo53  1  0.933225  0.130858  0.797344  1
  Mo  Mo54  1  0.066775  0.869142  0.202656  1
  Mo  Mo55  1  0.416803  0.778371  0.520161  1
  Mo  Mo56  1  0.583197  0.221629  0.479839  1
  Sm  Sm57  1  0.334164  0.658358  0.797273  1
  Sm  Sm58  1  0.665836  0.341642  0.202727  1
  Sm  Sm59  1  0.234390  0.224566  0.175151  1
  Sm  Sm60  1  0.765610  0.775434  0.824849  1
  Sm  Sm61  1  0.784845  0.943896  0.410279  1
  Sm  Sm62  1  0.215155  0.056104  0.589721  1
