# generated using pymatgen
data_Co2RuO4
_symmetry_space_group_name_H-M   'P 1'
_cell_length_a   6.09183272
_cell_length_b   6.09183220
_cell_length_c   6.04301171
_cell_angle_alpha   60.26476075
_cell_angle_beta   60.26476181
_cell_angle_gamma   57.69318209
_symmetry_Int_Tables_number   1
_chemical_formula_structural   Co2RuO4
_chemical_formula_sum   'Co4 Ru2 O8'
_cell_volume   156.22684742
_cell_formula_units_Z   2
loop_
 _symmetry_equiv_pos_site_id
 _symmetry_equiv_pos_as_xyz
  1  'x, y, z'
loop_
 _atom_site_type_symbol
 _atom_site_label
 _atom_site_symmetry_multiplicity
 _atom_site_fract_x
 _atom_site_fract_y
 _atom_site_fract_z
 _atom_site_occupancy
  Co  Co0  1  0.010102  0.010102  0.989898  1
  Co  Co1  1  0.239898  0.239898  0.260102  1
  Co  Co2  1  0.625000  0.625000  0.125000  1
  Co  Co3  1  0.625000  0.625000  0.625000  1
  O  O4  1  0.376853  0.376853  0.384904  1
  O  O5  1  0.376853  0.376853  0.861390  1
  O  O6  1  0.367768  0.837302  0.397465  1
  O  O7  1  0.837302  0.367768  0.397465  1
  O  O8  1  0.412698  0.882232  0.852535  1
  O  O9  1  0.882232  0.412698  0.852535  1
  O  O10  1  0.873147  0.873147  0.388610  1
  O  O11  1  0.873147  0.873147  0.865096  1
  Ru  Ru12  1  0.125000  0.625000  0.625000  1
  Ru  Ru13  1  0.625000  0.125000  0.625000  1
