# generated using pymatgen
data_Sm3TaO7
_symmetry_space_group_name_H-M   'P 1'
_cell_length_a   6.62449299
_cell_length_b   6.62449299
_cell_length_c   7.65392564
_cell_angle_alpha   90.00000000
_cell_angle_beta   90.00000000
_cell_angle_gamma   109.30353654
_symmetry_Int_Tables_number   1
_chemical_formula_structural   Sm3TaO7
_chemical_formula_sum   'Sm6 Ta2 O14'
_cell_volume   317.00094083
_cell_formula_units_Z   2
loop_
 _symmetry_equiv_pos_site_id
 _symmetry_equiv_pos_as_xyz
  1  'x, y, z'
loop_
 _atom_site_type_symbol
 _atom_site_label
 _atom_site_symmetry_multiplicity
 _atom_site_fract_x
 _atom_site_fract_y
 _atom_site_fract_z
 _atom_site_occupancy
  Sm  Sm0  1  0.000637  0.464751  0.496066  1
  Sm  Sm1  1  0.535249  0.999363  0.503934  1
  Sm  Sm2  1  0.476934  0.476934  0.750000  1
  Sm  Sm3  1  0.523066  0.523066  0.250000  1
  Sm  Sm4  1  0.999363  0.535249  0.996066  1
  Sm  Sm5  1  0.464751  0.000637  0.003934  1
  Ta  Ta6  1  0.002264  0.002264  0.250000  1
  Ta  Ta7  1  0.997736  0.997736  0.750000  1
  O  O8  1  0.061014  0.938986  0.000000  1
  O  O9  1  0.363672  0.636328  0.000000  1
  O  O10  1  0.059153  0.310265  0.214696  1
  O  O11  1  0.689735  0.940847  0.785304  1
  O  O12  1  0.370485  0.629515  0.500000  1
  O  O13  1  0.678970  0.922659  0.222985  1
  O  O14  1  0.077341  0.321030  0.777015  1
  O  O15  1  0.321030  0.077341  0.722985  1
  O  O16  1  0.922659  0.678970  0.277015  1
  O  O17  1  0.629515  0.370485  0.000000  1
  O  O18  1  0.940847  0.689735  0.714696  1
  O  O19  1  0.310265  0.059153  0.285304  1
  O  O20  1  0.636328  0.363672  0.500000  1
  O  O21  1  0.938986  0.061014  0.500000  1
