# generated using pymatgen
data_SmAu6
_symmetry_space_group_name_H-M   'P 1'
_cell_length_a   9.95138199
_cell_length_b   10.58958415
_cell_length_c   10.58958415
_cell_angle_alpha   90.00000000
_cell_angle_beta   90.00000000
_cell_angle_gamma   90.00000000
_symmetry_Int_Tables_number   1
_chemical_formula_structural   SmAu6
_chemical_formula_sum   'Sm8 Au48'
_cell_volume   1115.94093546
_cell_formula_units_Z   8
loop_
 _symmetry_equiv_pos_site_id
 _symmetry_equiv_pos_as_xyz
  1  'x, y, z'
loop_
 _atom_site_type_symbol
 _atom_site_label
 _atom_site_symmetry_multiplicity
 _atom_site_fract_x
 _atom_site_fract_y
 _atom_site_fract_z
 _atom_site_occupancy
  Sm  Sm0  1  0.289551  0.925334  0.925334  1
  Sm  Sm1  1  0.289551  0.574666  0.574666  1
  Sm  Sm2  1  0.789551  0.925334  0.574666  1
  Sm  Sm3  1  0.789551  0.574666  0.925334  1
  Sm  Sm4  1  0.710449  0.425334  0.425334  1
  Sm  Sm5  1  0.210449  0.074666  0.425334  1
  Sm  Sm6  1  0.210449  0.425334  0.074666  1
  Sm  Sm7  1  0.710449  0.074666  0.074666  1
  Au  Au8  1  0.180996  0.146458  0.146458  1
  Au  Au9  1  0.680996  0.353542  0.146458  1
  Au  Au10  1  0.680996  0.146458  0.353542  1
  Au  Au11  1  0.180996  0.353542  0.353542  1
  Au  Au12  1  0.319004  0.646458  0.853542  1
  Au  Au13  1  0.319004  0.853542  0.646458  1
  Au  Au14  1  0.819004  0.646458  0.646458  1
  Au  Au15  1  0.819004  0.853542  0.853542  1
  Au  Au16  1  0.144693  0.623573  0.301396  1
  Au  Au17  1  0.644693  0.198604  0.623573  1
  Au  Au18  1  0.644693  0.301396  0.876427  1
  Au  Au19  1  0.144693  0.876427  0.198604  1
  Au  Au20  1  0.355307  0.123573  0.698604  1
  Au  Au21  1  0.355307  0.376427  0.801396  1
  Au  Au22  1  0.855307  0.801396  0.123573  1
  Au  Au23  1  0.855307  0.698604  0.376427  1
  Au  Au24  1  0.855307  0.376427  0.698604  1
  Au  Au25  1  0.355307  0.801396  0.376427  1
  Au  Au26  1  0.355307  0.698604  0.123573  1
  Au  Au27  1  0.855307  0.123573  0.801396  1
  Au  Au28  1  0.644693  0.876427  0.301396  1
  Au  Au29  1  0.644693  0.623573  0.198604  1
  Au  Au30  1  0.144693  0.198604  0.876427  1
  Au  Au31  1  0.144693  0.301396  0.623573  1
  Au  Au32  1  0.078723  0.681117  0.013507  1
  Au  Au33  1  0.578723  0.486493  0.681117  1
  Au  Au34  1  0.578723  0.013507  0.818883  1
  Au  Au35  1  0.078723  0.818883  0.486493  1
  Au  Au36  1  0.421277  0.181117  0.986493  1
  Au  Au37  1  0.421277  0.318883  0.513507  1
  Au  Au38  1  0.921277  0.513507  0.181117  1
  Au  Au39  1  0.921277  0.986493  0.318883  1
  Au  Au40  1  0.921277  0.318883  0.986493  1
  Au  Au41  1  0.421277  0.513507  0.318883  1
  Au  Au42  1  0.421277  0.986493  0.181117  1
  Au  Au43  1  0.921277  0.181117  0.513507  1
  Au  Au44  1  0.578723  0.818883  0.013507  1
  Au  Au45  1  0.578723  0.681117  0.486493  1
  Au  Au46  1  0.078723  0.486493  0.818883  1
  Au  Au47  1  0.078723  0.013507  0.681117  1
  Au  Au48  1  0.563262  0.750000  0.750000  1
  Au  Au49  1  0.063262  0.750000  0.750000  1
  Au  Au50  1  0.936738  0.250000  0.250000  1
  Au  Au51  1  0.436738  0.250000  0.250000  1
  Au  Au52  1  0.000000  0.500000  0.500000  1
  Au  Au53  1  0.500000  0.000000  0.500000  1
  Au  Au54  1  0.500000  0.500000  0.000000  1
  Au  Au55  1  0.000000  0.000000  0.000000  1
