# generated using pymatgen
data_Sm2Cu2O5
_symmetry_space_group_name_H-M   'P 1'
_cell_length_a   11.05891161
_cell_length_b   12.74684169
_cell_length_c   3.65156448
_cell_angle_alpha   90.00000000
_cell_angle_beta   90.00000000
_cell_angle_gamma   90.00000000
_symmetry_Int_Tables_number   1
_chemical_formula_structural   Sm2Cu2O5
_chemical_formula_sum   'Sm8 Cu8 O20'
_cell_volume   514.74715257
_cell_formula_units_Z   4
loop_
 _symmetry_equiv_pos_site_id
 _symmetry_equiv_pos_as_xyz
  1  'x, y, z'
loop_
 _atom_site_type_symbol
 _atom_site_label
 _atom_site_symmetry_multiplicity
 _atom_site_fract_x
 _atom_site_fract_y
 _atom_site_fract_z
 _atom_site_occupancy
  Sm  Sm0  1  0.042989  0.329768  0.217109  1
  Sm  Sm1  1  0.207910  0.003219  0.213732  1
  Sm  Sm2  1  0.292090  0.503219  0.713732  1
  Sm  Sm3  1  0.457011  0.829768  0.717109  1
  Sm  Sm4  1  0.542989  0.329768  0.282891  1
  Sm  Sm5  1  0.707910  0.003219  0.286268  1
  Sm  Sm6  1  0.792090  0.503219  0.786268  1
  Sm  Sm7  1  0.957011  0.829768  0.782891  1
  Cu  Cu8  1  0.011403  0.614132  0.339626  1
  Cu  Cu9  1  0.236899  0.717714  0.156262  1
  Cu  Cu10  1  0.263101  0.217714  0.656262  1
  Cu  Cu11  1  0.488597  0.114132  0.839626  1
  Cu  Cu12  1  0.511403  0.614132  0.160374  1
  Cu  Cu13  1  0.736899  0.717714  0.343738  1
  Cu  Cu14  1  0.763101  0.217714  0.843738  1
  Cu  Cu15  1  0.988597  0.114132  0.660374  1
  O  O16  1  0.073632  0.762535  0.277275  1
  O  O17  1  0.075324  0.976851  0.722072  1
  O  O18  1  0.125246  0.166398  0.369149  1
  O  O19  1  0.175709  0.354556  0.723964  1
  O  O20  1  0.174396  0.568475  0.215341  1
  O  O21  1  0.325604  0.068475  0.715341  1
  O  O22  1  0.324291  0.854556  0.223964  1
  O  O23  1  0.374754  0.666398  0.869149  1
  O  O24  1  0.424676  0.476851  0.222072  1
  O  O25  1  0.426368  0.262535  0.777275  1
  O  O26  1  0.573632  0.762535  0.222725  1
  O  O27  1  0.575324  0.976851  0.777928  1
  O  O28  1  0.625246  0.166398  0.130851  1
  O  O29  1  0.675709  0.354556  0.776036  1
  O  O30  1  0.674396  0.568475  0.284659  1
  O  O31  1  0.825604  0.068475  0.784659  1
  O  O32  1  0.824291  0.854556  0.276036  1
  O  O33  1  0.874754  0.666398  0.630851  1
  O  O34  1  0.924676  0.476851  0.277928  1
  O  O35  1  0.926368  0.262535  0.722725  1
