# generated using pymatgen
data_Sm2MoO6
_symmetry_space_group_name_H-M   'P 1'
_cell_length_a   5.52237578
_cell_length_b   10.12928249
_cell_length_c   10.12928249
_cell_angle_alpha   68.44835562
_cell_angle_beta   75.16988670
_cell_angle_gamma   75.16988673
_symmetry_Int_Tables_number   1
_chemical_formula_structural   Sm2MoO6
_chemical_formula_sum   'Sm8 Mo4 O24'
_cell_volume   501.11011443
_cell_formula_units_Z   4
loop_
 _symmetry_equiv_pos_site_id
 _symmetry_equiv_pos_as_xyz
  1  'x, y, z'
loop_
 _atom_site_type_symbol
 _atom_site_label
 _atom_site_symmetry_multiplicity
 _atom_site_fract_x
 _atom_site_fract_y
 _atom_site_fract_z
 _atom_site_occupancy
  O  O0  1  0.864915  0.384292  0.826288  1
  O  O1  1  0.635085  0.173712  0.615708  1
  O  O2  1  0.135084  0.615708  0.173712  1
  O  O3  1  0.364916  0.826288  0.384292  1
  O  O4  1  0.261121  0.525979  0.929934  1
  O  O5  1  0.238879  0.070066  0.474021  1
  O  O6  1  0.738879  0.474021  0.070066  1
  O  O7  1  0.761121  0.929934  0.525979  1
  O  O8  1  0.636826  0.677806  0.788181  1
  O  O9  1  0.863174  0.211819  0.322194  1
  O  O10  1  0.363174  0.322194  0.211819  1
  O  O11  1  0.136826  0.788181  0.677806  1
  O  O12  1  0.922033  0.108705  0.075448  1
  O  O13  1  0.577967  0.924552  0.891295  1
  O  O14  1  0.077967  0.891295  0.924552  1
  O  O15  1  0.422033  0.075448  0.108705  1
  O  O16  1  0.915799  0.837168  0.311505  1
  O  O17  1  0.584201  0.688495  0.162832  1
  O  O18  1  0.084201  0.162832  0.688495  1
  O  O19  1  0.415799  0.311505  0.837168  1
  O  O20  1  0.017528  0.613623  0.546177  1
  O  O21  1  0.482472  0.453823  0.386377  1
  O  O22  1  0.982472  0.386377  0.453823  1
  O  O23  1  0.517528  0.546177  0.613623  1
  Mo  Mo24  1  0.559627  0.508920  0.796961  1
  Mo  Mo25  1  0.940373  0.203039  0.491080  1
  Mo  Mo26  1  0.440373  0.491080  0.203039  1
  Mo  Mo27  1  0.059627  0.796961  0.508920  1
  Sm  Sm28  1  0.619672  0.054683  0.286426  1
  Sm  Sm29  1  0.880328  0.713574  0.945317  1
  Sm  Sm30  1  0.380328  0.945317  0.713574  1
  Sm  Sm31  1  0.119672  0.286426  0.054683  1
  Sm  Sm32  1  0.750000  0.108510  0.891490  1
  Sm  Sm33  1  0.250000  0.891490  0.108510  1
  Sm  Sm34  1  0.750000  0.634023  0.365977  1
  Sm  Sm35  1  0.250000  0.365977  0.634023  1
