# generated using pymatgen
data_Sm2Mo2O7
_symmetry_space_group_name_H-M   'P 1'
_cell_length_a   7.61149598
_cell_length_b   14.81006041
_cell_length_c   12.91996230
_cell_angle_alpha   29.25555768
_cell_angle_beta   53.87417596
_cell_angle_gamma   59.04475138
_symmetry_Int_Tables_number   1
_chemical_formula_structural   Sm2Mo2O7
_chemical_formula_sum   'Sm8 Mo8 O28'
_cell_volume   574.90855711
_cell_formula_units_Z   4
loop_
 _symmetry_equiv_pos_site_id
 _symmetry_equiv_pos_as_xyz
  1  'x, y, z'
loop_
 _atom_site_type_symbol
 _atom_site_label
 _atom_site_symmetry_multiplicity
 _atom_site_fract_x
 _atom_site_fract_y
 _atom_site_fract_z
 _atom_site_occupancy
  Sm  Sm0  1  0.503944  0.000066  0.504283  1
  Sm  Sm1  1  0.989209  0.500257  0.503921  1
  Sm  Sm2  1  0.502068  0.249583  0.500801  1
  Sm  Sm3  1  0.497829  0.500177  0.497115  1
  Sm  Sm4  1  0.008950  0.000231  0.497152  1
  Sm  Sm5  1  0.500304  0.249742  0.000262  1
  Sm  Sm6  1  0.499975  0.751320  0.498407  1
  Sm  Sm7  1  0.500089  0.748377  0.001894  1
  Mo  Mo8  1  0.005265  0.000429  0.981269  1
  Mo  Mo9  1  0.999218  0.250009  0.999713  1
  Mo  Mo10  1  0.997086  0.500405  0.017180  1
  Mo  Mo11  1  0.468396  0.000836  0.016778  1
  Mo  Mo12  1  0.005037  0.252074  0.496453  1
  Mo  Mo13  1  0.001250  0.750656  0.999075  1
  Mo  Mo14  1  0.530984  0.500792  0.981110  1
  Mo  Mo15  1  0.999758  0.751139  0.498315  1
  O  O16  1  0.150810  0.000824  0.137589  1
  O  O17  1  0.105015  0.297519  0.083331  1
  O  O18  1  0.628710  0.000383  0.097887  1
  O  O19  1  0.938434  0.002807  0.854698  1
  O  O20  1  0.365769  0.296123  0.325657  1
  O  O21  1  0.122495  0.251300  0.619506  1
  O  O22  1  0.117684  0.749670  0.120703  1
  O  O23  1  0.639612  0.249305  0.121645  1
  O  O24  1  0.894209  0.000167  0.368863  1
  O  O25  1  0.675540  0.497004  0.101823  1
  O  O26  1  0.110111  0.500226  0.628348  1
  O  O27  1  0.357311  0.249161  0.882831  1
  O  O28  1  0.357193  0.751627  0.379715  1
  O  O29  1  0.106359  0.703417  0.676633  1
  O  O30  1  0.883095  0.251954  0.379859  1
  O  O31  1  0.635928  0.796857  0.083432  1
  O  O32  1  0.632303  0.202884  0.677885  1
  O  O33  1  0.076165  0.502802  0.134214  1
  O  O34  1  0.869676  0.498508  0.369825  1
  O  O35  1  0.377712  0.500300  0.896495  1
  O  O36  1  0.134305  0.998412  0.629641  1
  O  O37  1  0.368985  0.703398  0.917940  1
  O  O38  1  0.890476  0.203919  0.917913  1
  O  O39  1  0.891743  0.797006  0.324062  1
  O  O40  1  0.639403  0.751550  0.618766  1
  O  O41  1  0.846645  0.500785  0.857298  1
  O  O42  1  0.328620  0.997027  0.901044  1
  O  O43  1  0.878486  0.748800  0.882642  1
