# generated using pymatgen
data_Sm2ReO5
_symmetry_space_group_name_H-M   'P 1'
_cell_length_a   5.82761343
_cell_length_b   8.69738711
_cell_length_c   8.69738711
_cell_angle_alpha   90.00000000
_cell_angle_beta   90.00000000
_cell_angle_gamma   90.00000000
_symmetry_Int_Tables_number   1
_chemical_formula_structural   Sm2ReO5
_chemical_formula_sum   'Sm8 Re4 O20'
_cell_volume   440.82715202
_cell_formula_units_Z   4
loop_
 _symmetry_equiv_pos_site_id
 _symmetry_equiv_pos_as_xyz
  1  'x, y, z'
loop_
 _atom_site_type_symbol
 _atom_site_label
 _atom_site_symmetry_multiplicity
 _atom_site_fract_x
 _atom_site_fract_y
 _atom_site_fract_z
 _atom_site_occupancy
  O  O0  1  0.399090  0.840450  0.950103  1
  O  O1  1  0.399090  0.549897  0.840450  1
  O  O2  1  0.399090  0.950103  0.659550  1
  O  O3  1  0.399090  0.659550  0.549897  1
  O  O4  1  0.600910  0.159550  0.049897  1
  O  O5  1  0.600910  0.450103  0.159550  1
  O  O6  1  0.600910  0.049897  0.340450  1
  O  O7  1  0.600910  0.340450  0.450103  1
  O  O8  1  0.901910  0.657452  0.949941  1
  O  O9  1  0.901910  0.550059  0.657452  1
  O  O10  1  0.901910  0.949941  0.842548  1
  O  O11  1  0.901910  0.842548  0.550059  1
  O  O12  1  0.000000  0.250000  0.750000  1
  O  O13  1  0.000000  0.750000  0.250000  1
  O  O14  1  0.500000  0.250000  0.750000  1
  O  O15  1  0.500000  0.750000  0.250000  1
  O  O16  1  0.098090  0.157452  0.449941  1
  O  O17  1  0.098090  0.050059  0.157452  1
  O  O18  1  0.098090  0.449941  0.342548  1
  O  O19  1  0.098090  0.342548  0.050059  1
  Sm  Sm20  1  0.249789  0.400494  0.608349  1
  Sm  Sm21  1  0.249789  0.891651  0.400494  1
  Sm  Sm22  1  0.249789  0.608349  0.099506  1
  Sm  Sm23  1  0.249789  0.099506  0.891651  1
  Sm  Sm24  1  0.750211  0.900494  0.108349  1
  Sm  Sm25  1  0.750211  0.391651  0.900494  1
  Sm  Sm26  1  0.750211  0.108349  0.599506  1
  Sm  Sm27  1  0.750211  0.599506  0.391651  1
  Re  Re28  1  0.150620  0.250000  0.250000  1
  Re  Re29  1  0.849380  0.750000  0.750000  1
  Re  Re30  1  0.540238  0.250000  0.250000  1
  Re  Re31  1  0.459762  0.750000  0.750000  1
