# generated using pymatgen
data_Co5CuO8
_symmetry_space_group_name_H-M   'P 1'
_cell_length_a   5.81060110
_cell_length_b   5.81060110
_cell_length_c   5.76483223
_cell_angle_alpha   60.26022177
_cell_angle_beta   90.00000000
_cell_angle_gamma   120.52044355
_symmetry_Int_Tables_number   1
_chemical_formula_structural   Co5CuO8
_chemical_formula_sum   'Co5 Cu1 O8'
_cell_volume   137.08074222
_cell_formula_units_Z   1
loop_
 _symmetry_equiv_pos_site_id
 _symmetry_equiv_pos_as_xyz
  1  'x, y, z'
loop_
 _atom_site_type_symbol
 _atom_site_label
 _atom_site_symmetry_multiplicity
 _atom_site_fract_x
 _atom_site_fract_y
 _atom_site_fract_z
 _atom_site_occupancy
  Co  Co0  1  0.625000  0.250000  0.125000  1
  Co  Co1  1  0.000806  0.998390  0.000806  1
  Co  Co2  1  0.625000  0.250000  0.625000  1
  Co  Co3  1  0.249194  0.501610  0.249194  1
  Co  Co4  1  0.125000  0.750000  0.625000  1
  Cu  Cu5  1  0.625000  0.750000  0.625000  1
  O  O6  1  0.837344  0.237413  0.381293  1
  O  O7  1  0.387800  0.224400  0.387800  1
  O  O8  1  0.862200  0.275600  0.862200  1
  O  O9  1  0.868707  0.718637  0.412656  1
  O  O10  1  0.412656  0.262587  0.868707  1
  O  O11  1  0.868707  0.718637  0.868707  1
  O  O12  1  0.381293  0.781363  0.381293  1
  O  O13  1  0.381293  0.781363  0.837344  1
