# generated using pymatgen
data_Sm2TiO5
_symmetry_space_group_name_H-M   'P 1'
_cell_length_a   10.67958481
_cell_length_b   11.45601212
_cell_length_c   3.81047166
_cell_angle_alpha   90.00000000
_cell_angle_beta   90.00000000
_cell_angle_gamma   90.00000000
_symmetry_Int_Tables_number   1
_chemical_formula_structural   Sm2TiO5
_chemical_formula_sum   'Sm8 Ti4 O20'
_cell_volume   466.19388146
_cell_formula_units_Z   4
loop_
 _symmetry_equiv_pos_site_id
 _symmetry_equiv_pos_as_xyz
  1  'x, y, z'
loop_
 _atom_site_type_symbol
 _atom_site_label
 _atom_site_symmetry_multiplicity
 _atom_site_fract_x
 _atom_site_fract_y
 _atom_site_fract_z
 _atom_site_occupancy
  Sm  Sm0  1  0.109829  0.722811  0.250000  1
  Sm  Sm1  1  0.136861  0.056427  0.250000  1
  Sm  Sm2  1  0.363139  0.556427  0.750000  1
  Sm  Sm3  1  0.390171  0.222811  0.750000  1
  Sm  Sm4  1  0.609829  0.777189  0.250000  1
  Sm  Sm5  1  0.636861  0.443573  0.250000  1
  Sm  Sm6  1  0.863139  0.943573  0.750000  1
  Sm  Sm7  1  0.890171  0.277189  0.750000  1
  Ti  Ti8  1  0.179597  0.378530  0.250000  1
  Ti  Ti9  1  0.320403  0.878530  0.750000  1
  Ti  Ti10  1  0.679597  0.121470  0.250000  1
  Ti  Ti11  1  0.820403  0.621470  0.750000  1
  O  O12  1  0.007167  0.103578  0.750000  1
  O  O13  1  0.016507  0.341825  0.250000  1
  O  O14  1  0.224470  0.539624  0.250000  1
  O  O15  1  0.236006  0.381654  0.750000  1
  O  O16  1  0.236339  0.730716  0.750000  1
  O  O17  1  0.263661  0.230716  0.250000  1
  O  O18  1  0.263994  0.881654  0.250000  1
  O  O19  1  0.275530  0.039624  0.750000  1
  O  O20  1  0.483493  0.841825  0.750000  1
  O  O21  1  0.492833  0.603578  0.250000  1
  O  O22  1  0.507167  0.396422  0.750000  1
  O  O23  1  0.516507  0.158175  0.250000  1
  O  O24  1  0.724470  0.960376  0.250000  1
  O  O25  1  0.736006  0.118346  0.750000  1
  O  O26  1  0.736339  0.769284  0.750000  1
  O  O27  1  0.763661  0.269284  0.250000  1
  O  O28  1  0.763994  0.618346  0.250000  1
  O  O29  1  0.775530  0.460376  0.750000  1
  O  O30  1  0.983493  0.658175  0.750000  1
  O  O31  1  0.992833  0.896422  0.250000  1
