# generated using pymatgen
data_Sm2WO6
_symmetry_space_group_name_H-M   'P 1'
_cell_length_a   5.52264216
_cell_length_b   10.08227384
_cell_length_c   10.08227384
_cell_angle_alpha   68.63849742
_cell_angle_beta   75.79597435
_cell_angle_gamma   75.79597435
_symmetry_Int_Tables_number   1
_chemical_formula_structural   Sm2WO6
_chemical_formula_sum   'Sm8 W4 O24'
_cell_volume   499.21507865
_cell_formula_units_Z   4
loop_
 _symmetry_equiv_pos_site_id
 _symmetry_equiv_pos_as_xyz
  1  'x, y, z'
loop_
 _atom_site_type_symbol
 _atom_site_label
 _atom_site_symmetry_multiplicity
 _atom_site_fract_x
 _atom_site_fract_y
 _atom_site_fract_z
 _atom_site_occupancy
  Sm  Sm0  1  0.615527  0.057614  0.287607  1
  Sm  Sm1  1  0.115527  0.287607  0.057614  1
  Sm  Sm2  1  0.750000  0.632197  0.367803  1
  Sm  Sm3  1  0.750000  0.107367  0.892633  1
  Sm  Sm4  1  0.250000  0.892633  0.107367  1
  Sm  Sm5  1  0.250000  0.367803  0.632197  1
  Sm  Sm6  1  0.884473  0.712393  0.942386  1
  Sm  Sm7  1  0.384473  0.942386  0.712393  1
  W  W8  1  0.934886  0.199926  0.495154  1
  W  W9  1  0.434886  0.495154  0.199926  1
  W  W10  1  0.565114  0.504846  0.800074  1
  W  W11  1  0.065114  0.800074  0.504846  1
  O  O12  1  0.921477  0.107002  0.077199  1
  O  O13  1  0.421477  0.077199  0.107002  1
  O  O14  1  0.732381  0.472541  0.063953  1
  O  O15  1  0.853723  0.216533  0.320779  1
  O  O16  1  0.232381  0.063953  0.472541  1
  O  O17  1  0.353723  0.320779  0.216533  1
  O  O18  1  0.622582  0.174977  0.618282  1
  O  O19  1  0.122582  0.618282  0.174977  1
  O  O20  1  0.977660  0.386150  0.456175  1
  O  O21  1  0.579424  0.684183  0.161022  1
  O  O22  1  0.477660  0.456175  0.386150  1
  O  O23  1  0.079424  0.161022  0.684183  1
  O  O24  1  0.920576  0.838978  0.315817  1
  O  O25  1  0.522340  0.543825  0.613850  1
  O  O26  1  0.420576  0.315817  0.838978  1
  O  O27  1  0.022340  0.613850  0.543825  1
  O  O28  1  0.877418  0.381718  0.825023  1
  O  O29  1  0.377418  0.825023  0.381718  1
  O  O30  1  0.646277  0.679221  0.783467  1
  O  O31  1  0.767619  0.936047  0.527459  1
  O  O32  1  0.146277  0.783467  0.679221  1
  O  O33  1  0.267619  0.527459  0.936047  1
  O  O34  1  0.578523  0.922800  0.892998  1
  O  O35  1  0.078523  0.892998  0.922800  1
