# generated using pymatgen
data_Sm2Zr2O7
_symmetry_space_group_name_H-M   'P 1'
_cell_length_a   7.52438033
_cell_length_b   7.08599433
_cell_length_c   13.35321041
_cell_angle_alpha   90.00000000
_cell_angle_beta   114.89043591
_cell_angle_gamma   90.00000000
_symmetry_Int_Tables_number   1
_chemical_formula_structural   Sm2Zr2O7
_chemical_formula_sum   'Sm8 Zr8 O28'
_cell_volume   645.83152058
_cell_formula_units_Z   4
loop_
 _symmetry_equiv_pos_site_id
 _symmetry_equiv_pos_as_xyz
  1  'x, y, z'
loop_
 _atom_site_type_symbol
 _atom_site_label
 _atom_site_symmetry_multiplicity
 _atom_site_fract_x
 _atom_site_fract_y
 _atom_site_fract_z
 _atom_site_occupancy
  Sm  Sm0  1  0.160374  0.886284  0.637862  1
  Sm  Sm1  1  0.339626  0.386284  0.862138  1
  Sm  Sm2  1  0.135044  0.674284  0.385385  1
  Sm  Sm3  1  0.364956  0.174284  0.114615  1
  Sm  Sm4  1  0.635044  0.825716  0.885385  1
  Sm  Sm5  1  0.864956  0.325716  0.614615  1
  Sm  Sm6  1  0.660374  0.613716  0.137862  1
  Sm  Sm7  1  0.839626  0.113716  0.362138  1
  Zr  Zr8  1  0.149184  0.857758  0.897600  1
  Zr  Zr9  1  0.350816  0.357758  0.602400  1
  Zr  Zr10  1  0.332053  0.108393  0.387584  1
  Zr  Zr11  1  0.167947  0.608393  0.112416  1
  Zr  Zr12  1  0.832053  0.391607  0.887584  1
  Zr  Zr13  1  0.667947  0.891607  0.612416  1
  Zr  Zr14  1  0.649184  0.642242  0.397600  1
  Zr  Zr15  1  0.850816  0.142242  0.102400  1
  O  O16  1  0.947362  0.681033  0.936978  1
  O  O17  1  0.196897  0.228695  0.674614  1
  O  O18  1  0.305548  0.100075  0.930611  1
  O  O19  1  0.068025  0.063234  0.250420  1
  O  O20  1  0.004382  0.607305  0.199746  1
  O  O21  1  0.194452  0.600075  0.569389  1
  O  O22  1  0.156914  0.986632  0.468574  1
  O  O23  1  0.303103  0.728695  0.825386  1
  O  O24  1  0.247094  0.368101  0.423942  1
  O  O25  1  0.568025  0.436766  0.750420  1
  O  O26  1  0.552638  0.181033  0.563022  1
  O  O27  1  0.504382  0.892695  0.699746  1
  O  O28  1  0.252906  0.868101  0.076058  1
  O  O29  1  0.656914  0.513368  0.968574  1
  O  O30  1  0.343086  0.486632  0.031426  1
  O  O31  1  0.747094  0.131899  0.923942  1
  O  O32  1  0.495618  0.107305  0.300254  1
  O  O33  1  0.447362  0.818967  0.436978  1
  O  O34  1  0.431975  0.563234  0.249580  1
  O  O35  1  0.752906  0.631899  0.576058  1
  O  O36  1  0.696897  0.271305  0.174614  1
  O  O37  1  0.843086  0.013368  0.531426  1
  O  O38  1  0.805548  0.399925  0.430611  1
  O  O39  1  0.995618  0.392695  0.800254  1
  O  O40  1  0.931975  0.936766  0.749580  1
  O  O41  1  0.694452  0.899925  0.069389  1
  O  O42  1  0.803103  0.771305  0.325386  1
  O  O43  1  0.052638  0.318967  0.063022  1
