# generated using pymatgen
data_Sm3Rh2
_symmetry_space_group_name_H-M   'P 1'
_cell_length_a   7.53739969
_cell_length_b   7.53739968
_cell_length_c   7.53739968
_cell_angle_alpha   71.46316432
_cell_angle_beta   71.46316439
_cell_angle_gamma   71.46316437
_symmetry_Int_Tables_number   1
_chemical_formula_structural   Sm3Rh2
_chemical_formula_sum   'Sm9 Rh6'
_cell_volume   373.57042702
_cell_formula_units_Z   3
loop_
 _symmetry_equiv_pos_site_id
 _symmetry_equiv_pos_as_xyz
  1  'x, y, z'
loop_
 _atom_site_type_symbol
 _atom_site_label
 _atom_site_symmetry_multiplicity
 _atom_site_fract_x
 _atom_site_fract_y
 _atom_site_fract_z
 _atom_site_occupancy
  Rh  Rh0  1  0.544483  0.909676  0.336149  1
  Rh  Rh1  1  0.909676  0.336149  0.544483  1
  Rh  Rh2  1  0.336149  0.544483  0.909676  1
  Rh  Rh3  1  0.455517  0.090324  0.663851  1
  Rh  Rh4  1  0.090324  0.663851  0.455517  1
  Rh  Rh5  1  0.663851  0.455517  0.090324  1
  Sm  Sm6  1  0.661779  0.165645  0.891931  1
  Sm  Sm7  1  0.891931  0.661779  0.165645  1
  Sm  Sm8  1  0.165645  0.891931  0.661779  1
  Sm  Sm9  1  0.834355  0.108069  0.338221  1
  Sm  Sm10  1  0.108069  0.338221  0.834355  1
  Sm  Sm11  1  0.338221  0.834355  0.108069  1
  Sm  Sm12  1  0.703110  0.703110  0.703110  1
  Sm  Sm13  1  0.296890  0.296890  0.296890  1
  Sm  Sm14  1  0.500000  0.500000  0.500000  1
