# generated using pymatgen
data_Ta3AgO8
_symmetry_space_group_name_H-M   'P 1'
_cell_length_a   15.47649528
_cell_length_b   5.26462179
_cell_length_c   7.76365344
_cell_angle_alpha   90.00000000
_cell_angle_beta   78.30547199
_cell_angle_gamma   90.00000000
_symmetry_Int_Tables_number   1
_chemical_formula_structural   Ta3AgO8
_chemical_formula_sum   'Ta12 Ag4 O32'
_cell_volume   619.43543577
_cell_formula_units_Z   4
loop_
 _symmetry_equiv_pos_site_id
 _symmetry_equiv_pos_as_xyz
  1  'x, y, z'
loop_
 _atom_site_type_symbol
 _atom_site_label
 _atom_site_symmetry_multiplicity
 _atom_site_fract_x
 _atom_site_fract_y
 _atom_site_fract_z
 _atom_site_occupancy
  Ta  Ta0  1  0.165358  0.259023  0.824994  1
  Ta  Ta1  1  0.083686  0.761926  0.159061  1
  Ta  Ta2  1  0.165118  0.264874  0.334680  1
  Ta  Ta3  1  0.334642  0.759023  0.675006  1
  Ta  Ta4  1  0.334882  0.764874  0.165320  1
  Ta  Ta5  1  0.416314  0.261926  0.340939  1
  Ta  Ta6  1  0.583686  0.738074  0.659061  1
  Ta  Ta7  1  0.665118  0.235126  0.834680  1
  Ta  Ta8  1  0.665358  0.240977  0.324994  1
  Ta  Ta9  1  0.834882  0.735126  0.665320  1
  Ta  Ta10  1  0.916314  0.238074  0.840939  1
  Ta  Ta11  1  0.834642  0.740977  0.175006  1
  Ag  Ag12  1  0.077985  0.759448  0.653666  1
  Ag  Ag13  1  0.422015  0.259448  0.846334  1
  Ag  Ag14  1  0.577985  0.740552  0.153666  1
  Ag  Ag15  1  0.922015  0.240552  0.346334  1
  O  O16  1  0.034852  0.147684  0.832635  1
  O  O17  1  0.110420  0.575274  0.941320  1
  O  O18  1  0.058556  0.457672  0.297616  1
  O  O19  1  0.098694  0.956916  0.376885  1
  O  O20  1  0.156996  0.352448  0.570594  1
  O  O21  1  0.225402  0.942508  0.715563  1
  O  O22  1  0.154619  0.090626  0.056852  1
  O  O23  1  0.274598  0.442508  0.784437  1
  O  O24  1  0.218201  0.595832  0.206011  1
  O  O25  1  0.343004  0.852448  0.929406  1
  O  O26  1  0.281799  0.095832  0.293989  1
  O  O27  1  0.345381  0.590626  0.443148  1
  O  O28  1  0.389580  0.075274  0.558680  1
  O  O29  1  0.465148  0.647684  0.667365  1
  O  O30  1  0.401306  0.456916  0.123115  1
  O  O31  1  0.558556  0.042328  0.797616  1
  O  O32  1  0.441444  0.957672  0.202384  1
  O  O33  1  0.598694  0.543084  0.876885  1
  O  O34  1  0.534852  0.352316  0.332635  1
  O  O35  1  0.610420  0.924726  0.441320  1
  O  O36  1  0.654619  0.409374  0.556852  1
  O  O37  1  0.718201  0.904168  0.706011  1
  O  O38  1  0.656996  0.147552  0.070594  1
  O  O39  1  0.781799  0.404168  0.793989  1
  O  O40  1  0.725402  0.557492  0.215563  1
  O  O41  1  0.845381  0.909374  0.943148  1
  O  O42  1  0.774598  0.057491  0.284437  1
  O  O43  1  0.843004  0.647552  0.429406  1
  O  O44  1  0.901306  0.043084  0.623115  1
  O  O45  1  0.941444  0.542328  0.702384  1
  O  O46  1  0.889580  0.424726  0.058680  1
  O  O47  1  0.965148  0.852316  0.167365  1
