# generated using pymatgen
data_Ta2Mn4O9
_symmetry_space_group_name_H-M   'P 1'
_cell_length_a   5.98867981
_cell_length_b   6.01917840
_cell_length_c   54.97147996
_cell_angle_alpha   51.38664245
_cell_angle_beta   51.61863231
_cell_angle_gamma   52.18268222
_symmetry_Int_Tables_number   1
_chemical_formula_structural   Ta2Mn4O9
_chemical_formula_sum   'Ta12 Mn24 O54'
_cell_volume   1128.35335603
_cell_formula_units_Z   6
loop_
 _symmetry_equiv_pos_site_id
 _symmetry_equiv_pos_as_xyz
  1  'x, y, z'
loop_
 _atom_site_type_symbol
 _atom_site_label
 _atom_site_symmetry_multiplicity
 _atom_site_fract_x
 _atom_site_fract_y
 _atom_site_fract_z
 _atom_site_occupancy
  Ta  Ta0  1  0.034715  0.029133  0.002166  1
  Ta  Ta1  1  0.020366  0.028645  0.114408  1
  Ta  Ta2  1  0.225763  0.232574  0.134410  1
  Ta  Ta3  1  0.222486  0.216388  0.246908  1
  Ta  Ta4  1  0.217821  0.246047  0.356647  1
  Ta  Ta5  1  0.223410  0.205245  0.470755  1
  Ta  Ta6  1  0.517003  0.533737  0.392084  1
  Ta  Ta7  1  0.222110  0.216192  0.580342  1
  Ta  Ta8  1  0.219905  0.246430  0.690075  1
  Ta  Ta9  1  0.222048  0.203401  0.804393  1
  Ta  Ta10  1  0.514181  0.532592  0.725622  1
  Ta  Ta11  1  0.221891  0.209616  0.914144  1
  Mn  Mn12  1  0.244758  0.231140  0.022891  1
  Mn  Mn13  1  0.561062  0.538672  0.049026  1
  Mn  Mn14  1  0.023120  0.008165  0.224879  1
  Mn  Mn15  1  0.740410  0.739085  0.078829  1
  Mn  Mn16  1  0.509910  0.504992  0.169780  1
  Mn  Mn17  1  0.019390  0.031405  0.332994  1
  Mn  Mn18  1  0.717629  0.706388  0.195876  1
  Mn  Mn19  1  0.531904  0.515638  0.277664  1
  Mn  Mn20  1  0.016242  0.997105  0.449752  1
  Mn  Mn21  1  0.741439  0.722112  0.300275  1
  Mn  Mn22  1  0.023002  0.015775  0.557838  1
  Mn  Mn23  1  0.724734  0.732163  0.416142  1
  Mn  Mn24  1  0.507706  0.505435  0.503588  1
  Mn  Mn25  1  0.024764  0.030959  0.666072  1
  Mn  Mn26  1  0.718629  0.719459  0.527249  1
  Mn  Mn27  1  0.533357  0.517010  0.609768  1
  Mn  Mn28  1  0.014295  0.994070  0.783547  1
  Mn  Mn29  1  0.747047  0.718768  0.632478  1
  Mn  Mn30  1  0.019820  0.016963  0.891497  1
  Mn  Mn31  1  0.724286  0.735326  0.748883  1
  Mn  Mn32  1  0.511474  0.504323  0.836674  1
  Mn  Mn33  1  0.718213  0.714338  0.861718  1
  Mn  Mn34  1  0.501140  0.521887  0.947059  1
  Mn  Mn35  1  0.726388  0.745585  0.967072  1
  O  O36  1  0.135104  0.399391  0.094984  1
  O  O37  1  0.400760  0.855480  0.011800  1
  O  O38  1  0.837443  0.123958  0.045422  1
  O  O39  1  0.263554  0.637460  0.108699  1
  O  O40  1  0.668053  0.907962  0.034083  1
  O  O41  1  0.109037  0.408412  0.206453  1
  O  O42  1  0.935472  0.285933  0.075877  1
  O  O43  1  0.402140  0.847025  0.125376  1
  O  O44  1  0.847865  0.118747  0.154697  1
  O  O45  1  0.342071  0.578906  0.215393  1
  O  O46  1  0.612961  0.984201  0.141878  1
  O  O47  1  0.133387  0.396574  0.318321  1
  O  O48  1  0.964225  0.308693  0.174357  1
  O  O49  1  0.416232  0.850188  0.235569  1
  O  O50  1  0.851889  0.102059  0.271291  1
  O  O51  1  0.337321  0.582906  0.330493  1
  O  O52  1  0.575364  0.958359  0.259450  1
  O  O53  1  0.157745  0.430463  0.421750  1
  O  O54  1  0.962426  0.337420  0.286269  1
  O  O55  1  0.386466  0.824115  0.354476  1
  O  O56  1  0.793861  0.180518  0.379938  1
  O  O57  1  0.355094  0.575141  0.435589  1
  O  O58  1  0.574715  0.943415  0.371766  1
  O  O59  1  0.103425  0.419150  0.539933  1
  O  O60  1  0.931657  0.360191  0.396318  1
  O  O61  1  0.413952  0.847810  0.457025  1
  O  O62  1  0.855247  0.132263  0.487703  1
  O  O63  1  0.338512  0.574149  0.550402  1
  O  O64  1  0.583771  0.950935  0.480505  1
  O  O65  1  0.139337  0.396566  0.651451  1
  O  O66  1  0.977951  0.326598  0.507041  1
  O  O67  1  0.419175  0.859084  0.567564  1
  O  O68  1  0.853025  0.099891  0.604494  1
  O  O69  1  0.339129  0.581527  0.664496  1
  O  O70  1  0.576654  0.952359  0.592974  1
  O  O71  1  0.155127  0.430568  0.755274  1
  O  O72  1  0.959799  0.331649  0.620301  1
  O  O73  1  0.384711  0.824433  0.688148  1
  O  O74  1  0.793935  0.183060  0.713000  1
  O  O75  1  0.354082  0.572761  0.769203  1
  O  O76  1  0.574691  0.942014  0.705383  1
  O  O77  1  0.115156  0.418260  0.872214  1
  O  O78  1  0.929931  0.361527  0.729617  1
  O  O79  1  0.417370  0.849639  0.789885  1
  O  O80  1  0.856558  0.127434  0.821262  1
  O  O81  1  0.325838  0.570171  0.886374  1
  O  O82  1  0.577803  0.947585  0.814951  1
  O  O83  1  0.102421  0.415741  0.981978  1
  O  O84  1  0.971363  0.328698  0.840554  1
  O  O85  1  0.415738  0.860396  0.901537  1
  O  O86  1  0.841380  0.135100  0.935807  1
  O  O87  1  0.287882  0.657054  0.993809  1
  O  O88  1  0.588371  0.945014  0.925653  1
  O  O89  1  0.967507  0.271385  0.959607  1
