# generated using pymatgen
data_Ta7Cu3O19
_symmetry_space_group_name_H-M   'P 1'
_cell_length_a   6.28571597
_cell_length_b   6.28571597
_cell_length_c   20.43969879
_cell_angle_alpha   90.00000000
_cell_angle_beta   90.00000000
_cell_angle_gamma   119.99999995
_symmetry_Int_Tables_number   1
_chemical_formula_structural   Ta7Cu3O19
_chemical_formula_sum   'Ta14 Cu6 O38'
_cell_volume   699.38228753
_cell_formula_units_Z   2
loop_
 _symmetry_equiv_pos_site_id
 _symmetry_equiv_pos_as_xyz
  1  'x, y, z'
loop_
 _atom_site_type_symbol
 _atom_site_label
 _atom_site_symmetry_multiplicity
 _atom_site_fract_x
 _atom_site_fract_y
 _atom_site_fract_z
 _atom_site_occupancy
  O  O0  1  0.290785  0.930309  0.750000  1
  O  O1  1  0.360476  0.290785  0.250000  1
  O  O2  1  0.930309  0.639524  0.250000  1
  O  O3  1  0.069691  0.360476  0.750000  1
  O  O4  1  0.639524  0.709215  0.750000  1
  O  O5  1  0.709215  0.069691  0.250000  1
  O  O6  1  0.000000  0.000000  0.337429  1
  O  O7  1  0.000000  0.000000  0.837429  1
  O  O8  1  0.000000  0.000000  0.662571  1
  O  O9  1  0.000000  0.000000  0.162571  1
  O  O10  1  0.334133  0.914034  0.345784  1
  O  O11  1  0.420100  0.334133  0.845784  1
  O  O12  1  0.914034  0.579900  0.845784  1
  O  O13  1  0.085966  0.420100  0.345784  1
  O  O14  1  0.579900  0.665867  0.345784  1
  O  O15  1  0.665867  0.085966  0.845784  1
  O  O16  1  0.665867  0.085966  0.654216  1
  O  O17  1  0.579900  0.665867  0.154216  1
  O  O18  1  0.085966  0.420100  0.154216  1
  O  O19  1  0.914034  0.579900  0.654216  1
  O  O20  1  0.751224  0.028010  0.056493  1
  O  O21  1  0.723214  0.751224  0.556493  1
  O  O22  1  0.028010  0.276786  0.556493  1
  O  O23  1  0.971990  0.723214  0.056493  1
  O  O24  1  0.276786  0.248776  0.056493  1
  O  O25  1  0.248776  0.971990  0.556493  1
  O  O26  1  0.248776  0.971990  0.943507  1
  O  O27  1  0.276786  0.248776  0.443507  1
  O  O28  1  0.971990  0.723214  0.443507  1
  O  O29  1  0.028010  0.276786  0.943507  1
  O  O30  1  0.723214  0.751224  0.943507  1
  O  O31  1  0.751224  0.028010  0.443507  1
  O  O32  1  0.666667  0.333333  0.138640  1
  O  O33  1  0.333333  0.666667  0.638640  1
  O  O34  1  0.333333  0.666667  0.861360  1
  O  O35  1  0.666667  0.333333  0.361360  1
  O  O36  1  0.334133  0.914034  0.154216  1
  O  O37  1  0.420100  0.334133  0.654216  1
  Cu  Cu38  1  0.500000  0.000000  0.500000  1
  Cu  Cu39  1  0.500000  0.500000  0.000000  1
  Cu  Cu40  1  0.000000  0.500000  0.000000  1
  Cu  Cu41  1  0.000000  0.500000  0.500000  1
  Cu  Cu42  1  0.500000  0.500000  0.500000  1
  Cu  Cu43  1  0.500000  0.000000  0.000000  1
  Ta  Ta44  1  0.693526  0.028658  0.343341  1
  Ta  Ta45  1  0.664867  0.693526  0.843341  1
  Ta  Ta46  1  0.028658  0.335133  0.843341  1
  Ta  Ta47  1  0.971342  0.664867  0.343341  1
  Ta  Ta48  1  0.335133  0.306474  0.343341  1
  Ta  Ta49  1  0.306474  0.971342  0.843341  1
  Ta  Ta50  1  0.306474  0.971342  0.656659  1
  Ta  Ta51  1  0.335133  0.306474  0.156659  1
  Ta  Ta52  1  0.971342  0.664867  0.156659  1
  Ta  Ta53  1  0.028658  0.335133  0.656659  1
  Ta  Ta54  1  0.664867  0.693526  0.656659  1
  Ta  Ta55  1  0.693526  0.028658  0.156659  1
  Ta  Ta56  1  0.000000  0.000000  0.500000  1
  Ta  Ta57  1  0.000000  0.000000  0.000000  1
