# generated using pymatgen
data_Ta2CuO6
_symmetry_space_group_name_H-M   'P 1'
_cell_length_a   7.60506939
_cell_length_b   7.57343702
_cell_length_c   15.19424314
_cell_angle_alpha   90.00000000
_cell_angle_beta   90.00000000
_cell_angle_gamma   90.00000000
_symmetry_Int_Tables_number   1
_chemical_formula_structural   Ta2CuO6
_chemical_formula_sum   'Ta16 Cu8 O48'
_cell_volume   875.13543861
_cell_formula_units_Z   8
loop_
 _symmetry_equiv_pos_site_id
 _symmetry_equiv_pos_as_xyz
  1  'x, y, z'
loop_
 _atom_site_type_symbol
 _atom_site_label
 _atom_site_symmetry_multiplicity
 _atom_site_fract_x
 _atom_site_fract_y
 _atom_site_fract_z
 _atom_site_occupancy
  Cu  Cu0  1  0.000000  0.000000  0.250000  1
  Cu  Cu1  1  0.000000  0.500000  0.002026  1
  Cu  Cu2  1  0.000000  0.500000  0.250000  1
  Cu  Cu3  1  0.000000  0.500000  0.497974  1
  Cu  Cu4  1  0.000000  0.000000  0.750000  1
  Cu  Cu5  1  0.500000  0.000000  0.998785  1
  Cu  Cu6  1  0.500000  0.000000  0.501215  1
  Cu  Cu7  1  0.500000  0.000000  0.750000  1
  O  O8  1  0.000000  0.305031  0.088689  1
  O  O9  1  0.000000  0.305031  0.411311  1
  O  O10  1  0.000000  0.309069  0.590132  1
  O  O11  1  0.000000  0.690931  0.590132  1
  O  O12  1  0.000000  0.309069  0.909868  1
  O  O13  1  0.181355  0.000000  0.343964  1
  O  O14  1  0.181355  0.000000  0.156036  1
  O  O15  1  0.178029  0.000000  0.846282  1
  O  O16  1  0.178029  0.000000  0.653718  1
  O  O17  1  0.185055  0.313506  0.250000  1
  O  O18  1  0.185055  0.686494  0.250000  1
  O  O19  1  0.204883  0.299464  0.750000  1
  O  O20  1  0.204883  0.700536  0.750000  1
  O  O21  1  0.310162  0.180688  0.999397  1
  O  O22  1  0.310162  0.180688  0.500603  1
  O  O23  1  0.310162  0.819312  0.999397  1
  O  O24  1  0.310162  0.819312  0.500603  1
  O  O25  1  0.296824  0.500000  0.102393  1
  O  O26  1  0.306964  0.500000  0.603042  1
  O  O27  1  0.296824  0.500000  0.397607  1
  O  O28  1  0.306964  0.500000  0.896958  1
  O  O29  1  0.500000  0.206237  0.153106  1
  O  O30  1  0.500000  0.184686  0.656777  1
  O  O31  1  0.500000  0.206237  0.346894  1
  O  O32  1  0.500000  0.793763  0.153106  1
  O  O33  1  0.500000  0.793763  0.346894  1
  O  O34  1  0.500000  0.184686  0.843223  1
  O  O35  1  0.500000  0.815314  0.656777  1
  O  O36  1  0.500000  0.815314  0.843223  1
  O  O37  1  0.703176  0.500000  0.102393  1
  O  O38  1  0.703176  0.500000  0.397607  1
  O  O39  1  0.693036  0.500000  0.603042  1
  O  O40  1  0.693036  0.500000  0.896958  1
  O  O41  1  0.689838  0.180688  0.999397  1
  O  O42  1  0.689838  0.819312  0.999397  1
  O  O43  1  0.689838  0.180688  0.500603  1
  O  O44  1  0.689838  0.819312  0.500603  1
  O  O45  1  0.814945  0.313506  0.250000  1
  O  O46  1  0.814945  0.686494  0.250000  1
  O  O47  1  0.795117  0.299464  0.750000  1
  O  O48  1  0.795117  0.700536  0.750000  1
  O  O49  1  0.818645  0.000000  0.156036  1
  O  O50  1  0.818645  0.000000  0.343964  1
  O  O51  1  0.821971  0.000000  0.846282  1
  O  O52  1  0.821971  0.000000  0.653718  1
  O  O53  1  0.000000  0.694969  0.088689  1
  O  O54  1  0.000000  0.694969  0.411311  1
  O  O55  1  0.000000  0.690931  0.909868  1
  Ta  Ta56  1  0.255822  0.748923  0.124474  1
  Ta  Ta57  1  0.255822  0.748923  0.375526  1
  Ta  Ta58  1  0.248846  0.744521  0.626314  1
  Ta  Ta59  1  0.255822  0.251077  0.375526  1
  Ta  Ta60  1  0.248846  0.255479  0.873686  1
  Ta  Ta61  1  0.248846  0.744521  0.873686  1
  Ta  Ta62  1  0.255822  0.251077  0.124474  1
  Ta  Ta63  1  0.248846  0.255479  0.626314  1
  Ta  Ta64  1  0.744178  0.748923  0.375526  1
  Ta  Ta65  1  0.751154  0.744521  0.873686  1
  Ta  Ta66  1  0.744178  0.251077  0.124474  1
  Ta  Ta67  1  0.744178  0.251077  0.375526  1
  Ta  Ta68  1  0.744178  0.748923  0.124474  1
  Ta  Ta69  1  0.751154  0.255479  0.626314  1
  Ta  Ta70  1  0.751154  0.255479  0.873686  1
  Ta  Ta71  1  0.751154  0.744521  0.626314  1
