# generated using pymatgen
data_Ta16(Cu3O16)3
_symmetry_space_group_name_H-M   'P 1'
_cell_length_a   15.16497834
_cell_length_b   10.73765487
_cell_length_c   10.74683505
_cell_angle_alpha   60.11675288
_cell_angle_beta   45.12555602
_cell_angle_gamma   45.07676436
_symmetry_Int_Tables_number   1
_chemical_formula_structural   Ta16(Cu3O16)3
_chemical_formula_sum   'Ta16 Cu9 O48'
_cell_volume   878.07684120
_cell_formula_units_Z   1
loop_
 _symmetry_equiv_pos_site_id
 _symmetry_equiv_pos_as_xyz
  1  'x, y, z'
loop_
 _atom_site_type_symbol
 _atom_site_label
 _atom_site_symmetry_multiplicity
 _atom_site_fract_x
 _atom_site_fract_y
 _atom_site_fract_z
 _atom_site_occupancy
  Cu  Cu0  1  0.250000  0.000000  0.000000  1
  Cu  Cu1  1  0.000000  0.500000  0.000000  1
  Cu  Cu2  1  -0.000252  0.500504  0.500000  1
  Cu  Cu3  1  0.750000  0.000000  0.000000  1
  Cu  Cu4  1  0.500000  0.500000  0.000000  1
  Cu  Cu5  1  0.500252  0.499496  0.500000  1
  Cu  Cu6  1  0.250000  0.000000  0.500000  1
  Cu  Cu7  1  0.498588  0.000000  0.500000  1
  Cu  Cu8  1  0.001412  0.000000  0.500000  1
  O  O9  1  0.062900  0.185765  0.998757  1
  O  O10  1  0.251335  0.185765  0.001243  1
  O  O11  1  0.061824  0.000000  0.688001  1
  O  O12  1  0.255577  0.292887  0.195959  1
  O  O13  1  0.049920  0.705509  0.194650  1
  O  O14  1  0.250175  0.000000  0.688001  1
  O  O15  1  0.187572  0.319423  0.500000  1
  O  O16  1  0.005869  0.682949  0.500000  1
  O  O17  1  0.561657  0.185765  0.001243  1
  O  O18  1  0.248665  0.814235  0.998757  1
  O  O19  1  0.312554  0.500464  0.190726  1
  O  O20  1  0.003279  0.500464  0.809274  1
  O  O21  1  0.494585  0.191333  0.318269  1
  O  O22  1  0.005415  0.808667  0.681731  1
  O  O23  1  0.312854  0.191333  0.681731  1
  O  O24  1  0.187146  0.808667  0.318269  1
  O  O25  1  0.187446  0.499536  0.809274  1
  O  O26  1  0.496721  0.499536  0.190726  1
  O  O27  1  0.752578  0.185765  0.998757  1
  O  O28  1  0.437100  0.814235  0.001243  1
  O  O29  1  0.312428  0.680577  0.500000  1
  O  O30  1  0.494131  0.317051  0.500000  1
  O  O31  1  0.547752  0.000000  0.705168  1
  O  O32  1  0.249825  0.000000  0.311999  1
  O  O33  1  0.755429  0.294491  0.194650  1
  O  O34  1  0.450080  0.294491  0.805350  1
  O  O35  1  0.548464  0.707113  0.195959  1
  O  O36  1  0.244423  0.707113  0.804041  1
  O  O37  1  0.747080  0.000000  0.705168  1
  O  O38  1  0.438176  0.000000  0.311999  1
  O  O39  1  0.688817  0.317051  0.500000  1
  O  O40  1  0.506995  0.680577  0.500000  1
  O  O41  1  0.747422  0.814235  0.001243  1
  O  O42  1  0.813017  0.499536  0.190726  1
  O  O43  1  0.503743  0.499536  0.809274  1
  O  O44  1  0.995813  0.191333  0.318269  1
  O  O45  1  0.504187  0.808667  0.681731  1
  O  O46  1  0.685918  0.808667  0.318269  1
  O  O47  1  0.814082  0.191333  0.681731  1
  O  O48  1  0.686983  0.500464  0.809274  1
  O  O49  1  0.996257  0.500464  0.190726  1
  O  O50  1  0.938343  0.814235  0.998757  1
  O  O51  1  0.993005  0.319423  0.500000  1
  O  O52  1  0.811183  0.682949  0.500000  1
  O  O53  1  0.752920  0.000000  0.294832  1
  O  O54  1  0.744571  0.705509  0.805350  1
  O  O55  1  0.951536  0.292887  0.804041  1
  O  O56  1  0.952248  0.000000  0.294832  1
  Ta  Ta57  1  0.125281  0.253884  0.247891  1
  Ta  Ta58  1  0.372944  0.253884  0.247891  1
  Ta  Ta59  1  0.120835  0.253884  0.752109  1
  Ta  Ta60  1  0.119830  0.753477  0.251094  1
  Ta  Ta61  1  0.127056  0.746116  0.752109  1
  Ta  Ta62  1  0.629076  0.246523  0.251094  1
  Ta  Ta63  1  0.380170  0.246523  0.748906  1
  Ta  Ta64  1  0.379165  0.746116  0.247891  1
  Ta  Ta65  1  0.624401  0.246523  0.748906  1
  Ta  Ta66  1  0.626828  0.746116  0.247891  1
  Ta  Ta67  1  0.873308  0.246523  0.251094  1
  Ta  Ta68  1  0.374719  0.746116  0.752109  1
  Ta  Ta69  1  0.626692  0.753477  0.748906  1
  Ta  Ta70  1  0.873172  0.253884  0.752109  1
  Ta  Ta71  1  0.875599  0.753477  0.251094  1
  Ta  Ta72  1  0.870924  0.753477  0.748906  1
