# generated using pymatgen
data_Ta2MnO6
_symmetry_space_group_name_H-M   'P 1'
_cell_length_a   5.19009356
_cell_length_b   22.70395583
_cell_length_c   9.63106412
_cell_angle_alpha   50.48330413
_cell_angle_beta   90.94015699
_cell_angle_gamma   90.59820875
_symmetry_Int_Tables_number   1
_chemical_formula_structural   Ta2MnO6
_chemical_formula_sum   'Ta16 Mn8 O48'
_cell_volume   875.37517807
_cell_formula_units_Z   8
loop_
 _symmetry_equiv_pos_site_id
 _symmetry_equiv_pos_as_xyz
  1  'x, y, z'
loop_
 _atom_site_type_symbol
 _atom_site_label
 _atom_site_symmetry_multiplicity
 _atom_site_fract_x
 _atom_site_fract_y
 _atom_site_fract_z
 _atom_site_occupancy
  Ta  Ta0  1  0.244148  0.942011  0.842007  1
  Ta  Ta1  1  0.250000  0.781443  0.827836  1
  Ta  Ta2  1  0.244442  0.609211  0.832708  1
  Ta  Ta3  1  0.255852  0.942011  0.331961  1
  Ta  Ta4  1  0.257757  0.279468  0.826733  1
  Ta  Ta5  1  0.255558  0.609211  0.339658  1
  Ta  Ta6  1  0.250000  0.112943  0.830585  1
  Ta  Ta7  1  0.242243  0.279468  0.334863  1
  Ta  Ta8  1  0.744442  0.724122  0.660342  1
  Ta  Ta9  1  0.744148  0.391322  0.668039  1
  Ta  Ta10  1  0.755558  0.724122  0.167292  1
  Ta  Ta11  1  0.750000  0.551891  0.172164  1
  Ta  Ta12  1  0.757757  0.053866  0.665137  1
  Ta  Ta13  1  0.755852  0.391322  0.157993  1
  Ta  Ta14  1  0.750000  0.220390  0.169415  1
  Ta  Ta15  1  0.742243  0.053866  0.173267  1
  Mn  Mn16  1  0.250000  0.779413  0.330881  1
  Mn  Mn17  1  0.250000  0.445162  0.832256  1
  Mn  Mn18  1  0.250000  0.437458  0.343813  1
  Mn  Mn19  1  0.250000  0.108011  0.337982  1
  Mn  Mn20  1  0.750000  0.895876  0.656187  1
  Mn  Mn21  1  0.750000  0.553920  0.669119  1
  Mn  Mn22  1  0.750000  0.888171  0.167744  1
  Mn  Mn23  1  0.750000  0.225322  0.662018  1
  O  O24  1  0.063763  0.700400  0.601852  1
  O  O25  1  0.061799  0.364034  0.602767  1
  O  O26  1  0.098606  0.875248  0.308852  1
  O  O27  1  0.061064  0.036792  0.585760  1
  O  O28  1  0.081626  0.710775  0.062660  1
  O  O29  1  0.109237  0.871540  0.808525  1
  O  O30  1  0.075632  0.545691  0.293654  1
  O  O31  1  0.070849  0.368864  0.090198  1
  O  O32  1  0.099287  0.541101  0.813725  1
  O  O33  1  0.076749  0.212234  0.293370  1
  O  O34  1  0.084130  0.042766  0.068465  1
  O  O35  1  0.116835  0.202232  0.816591  1
  O  O36  1  0.390763  0.871540  0.576853  1
  O  O37  1  0.400713  0.541101  0.562973  1
  O  O38  1  0.383165  0.202232  0.576713  1
  O  O39  1  0.418374  0.710775  0.805016  1
  O  O40  1  0.401394  0.875248  0.065405  1
  O  O41  1  0.429151  0.368864  0.803212  1
  O  O42  1  0.424368  0.545691  0.069274  1
  O  O43  1  0.415870  0.042766  0.803237  1
  O  O44  1  0.436237  0.700400  0.296949  1
  O  O45  1  0.423251  0.212234  0.069928  1
  O  O46  1  0.438201  0.364034  0.305133  1
  O  O47  1  0.438936  0.036792  0.303862  1
  O  O48  1  0.561799  0.969300  0.694867  1
  O  O49  1  0.563763  0.632933  0.703051  1
  O  O50  1  0.575632  0.787643  0.930726  1
  O  O51  1  0.561064  0.296541  0.696138  1
  O  O52  1  0.570849  0.964470  0.196788  1
  O  O53  1  0.598606  0.458085  0.934595  1
  O  O54  1  0.581626  0.622558  0.194984  1
  O  O55  1  0.576749  0.121099  0.930072  1
  O  O56  1  0.584130  0.290567  0.196763  1
  O  O57  1  0.599287  0.792232  0.437027  1
  O  O58  1  0.609237  0.461793  0.423147  1
  O  O59  1  0.616835  0.131102  0.423287  1
  O  O60  1  0.900713  0.792232  0.186275  1
  O  O61  1  0.929151  0.964470  0.909802  1
  O  O62  1  0.924368  0.787643  0.706346  1
  O  O63  1  0.890763  0.461793  0.191475  1
  O  O64  1  0.918374  0.622558  0.937340  1
  O  O65  1  0.901394  0.458085  0.691148  1
  O  O66  1  0.883165  0.131102  0.183409  1
  O  O67  1  0.915870  0.290567  0.931535  1
  O  O68  1  0.938201  0.969300  0.397233  1
  O  O69  1  0.923251  0.121099  0.706630  1
  O  O70  1  0.936237  0.632933  0.398148  1
  O  O71  1  0.938936  0.296541  0.414240  1
