# generated using pymatgen
data_Co5RuO8
_symmetry_space_group_name_H-M   'P 1'
_cell_length_a   6.04374291
_cell_length_b   5.97115113
_cell_length_c   5.97115145
_cell_angle_alpha   59.99999761
_cell_angle_beta   60.39653343
_cell_angle_gamma   60.39653168
_symmetry_Int_Tables_number   1
_chemical_formula_structural   Co5RuO8
_chemical_formula_sum   'Co5 Ru1 O8'
_cell_volume   153.27956897
_cell_formula_units_Z   1
loop_
 _symmetry_equiv_pos_site_id
 _symmetry_equiv_pos_as_xyz
  1  'x, y, z'
loop_
 _atom_site_type_symbol
 _atom_site_label
 _atom_site_symmetry_multiplicity
 _atom_site_fract_x
 _atom_site_fract_y
 _atom_site_fract_z
 _atom_site_occupancy
  Co  Co0  1  0.102433  0.132522  0.132522  1
  Co  Co1  1  0.500000  0.500000  0.000000  1
  Co  Co2  1  0.500000  0.000000  0.500000  1
  Co  Co3  1  0.500000  0.500000  0.500000  1
  Co  Co4  1  0.897567  0.867478  0.867478  1
  O  O5  1  0.241532  0.265030  0.265030  1
  O  O6  1  0.241532  0.728408  0.265030  1
  O  O7  1  0.241532  0.265030  0.728408  1
  O  O8  1  0.698786  0.267071  0.267071  1
  O  O9  1  0.301214  0.732929  0.732929  1
  O  O10  1  0.758468  0.734970  0.271592  1
  O  O11  1  0.758468  0.271592  0.734970  1
  O  O12  1  0.758468  0.734970  0.734970  1
  Ru  Ru13  1  0.000000  0.500000  0.500000  1
