# generated using pymatgen
data_TaCrO4
_symmetry_space_group_name_H-M   'P 1'
_cell_length_a   4.67495627
_cell_length_b   5.60707036
_cell_length_c   4.67538416
_cell_angle_alpha   89.00751234
_cell_angle_beta   91.20377253
_cell_angle_gamma   146.50953467
_symmetry_Int_Tables_number   1
_chemical_formula_structural   TaCrO4
_chemical_formula_sum   'Ta1 Cr1 O4'
_cell_volume   67.61067328
_cell_formula_units_Z   1
loop_
 _symmetry_equiv_pos_site_id
 _symmetry_equiv_pos_as_xyz
  1  'x, y, z'
loop_
 _atom_site_type_symbol
 _atom_site_label
 _atom_site_symmetry_multiplicity
 _atom_site_fract_x
 _atom_site_fract_y
 _atom_site_fract_z
 _atom_site_occupancy
  Ta  Ta0  1  0.502490  0.499937  0.002167  1
  Cr  Cr1  1  0.502488  -0.000008  0.502121  1
  O  O2  1  0.196236  0.000005  0.808492  1
  O  O3  1  0.200701  0.500449  0.700737  1
  O  O4  1  0.809752  0.999958  0.196738  1
  O  O5  1  0.804640  0.499553  0.303883  1
