# generated using pymatgen
data_Ta3AgO8
_symmetry_space_group_name_H-M   'P 1'
_cell_length_a   17.16001490
_cell_length_b   7.88279045
_cell_length_c   9.17149324
_cell_angle_alpha   89.99999991
_cell_angle_beta   89.99999896
_cell_angle_gamma   90.00001695
_symmetry_Int_Tables_number   1
_chemical_formula_structural   Ta3AgO8
_chemical_formula_sum   'Ta24 Ag8 O64'
_cell_volume   1240.61689923
_cell_formula_units_Z   8
loop_
 _symmetry_equiv_pos_site_id
 _symmetry_equiv_pos_as_xyz
  1  'x, y, z'
loop_
 _atom_site_type_symbol
 _atom_site_label
 _atom_site_symmetry_multiplicity
 _atom_site_fract_x
 _atom_site_fract_y
 _atom_site_fract_z
 _atom_site_occupancy
  Ta  Ta0  1  0.060651  0.500175  0.811903  1
  Ta  Ta1  1  0.060651  0.999825  0.811903  1
  Ta  Ta2  1  0.135823  0.498493  0.397257  1
  Ta  Ta3  1  0.135823  0.001507  0.397257  1
  Ta  Ta4  1  0.250000  0.000357  0.690013  1
  Ta  Ta5  1  0.250000  0.497225  0.049349  1
  Ta  Ta6  1  0.250000  0.499643  0.690013  1
  Ta  Ta7  1  0.250000  0.002775  0.049349  1
  Ta  Ta8  1  0.364177  0.498493  0.397257  1
  Ta  Ta9  1  0.364177  0.001507  0.397257  1
  Ta  Ta10  1  0.439349  0.500175  0.811903  1
  Ta  Ta11  1  0.439349  0.999825  0.811904  1
  Ta  Ta12  1  0.560651  0.000175  0.188096  1
  Ta  Ta13  1  0.560651  0.499825  0.188097  1
  Ta  Ta14  1  0.635823  0.998493  0.602743  1
  Ta  Ta15  1  0.635823  0.501507  0.602743  1
  Ta  Ta16  1  0.750000  0.500357  0.309987  1
  Ta  Ta17  1  0.750000  0.502775  0.950651  1
  Ta  Ta18  1  0.750000  0.997225  0.950651  1
  Ta  Ta19  1  0.750000  0.999643  0.309987  1
  Ta  Ta20  1  0.864177  0.998493  0.602743  1
  Ta  Ta21  1  0.864177  0.501507  0.602743  1
  Ta  Ta22  1  0.939349  0.000175  0.188097  1
  Ta  Ta23  1  0.939349  0.499825  0.188097  1
  Ag  Ag24  1  -0.000112  0.750000  0.502221  1
  Ag  Ag25  1  0.091522  0.750000  0.094751  1
  Ag  Ag26  1  0.408478  0.750000  0.094751  1
  Ag  Ag27  1  0.500112  0.750000  0.502221  1
  Ag  Ag28  1  0.499888  0.250000  0.497779  1
  Ag  Ag29  1  0.591522  0.250000  0.905249  1
  Ag  Ag30  1  0.908478  0.250000  0.905249  1
  Ag  Ag31  1  0.000112  0.250000  0.497779  1
  O  O32  1  0.000000  0.000000  0.000000  1
  O  O33  1  0.000000  0.500000  0.000000  1
  O  O34  1  0.024660  0.013186  0.330768  1
  O  O35  1  0.024660  0.486814  0.330768  1
  O  O36  1  0.053925  0.250000  0.810840  1
  O  O37  1  0.065500  0.750000  0.824278  1
  O  O38  1  0.126387  0.750000  0.405174  1
  O  O39  1  0.131306  0.001426  0.620742  1
  O  O40  1  0.131306  0.498574  0.620742  1
  O  O41  1  0.138177  0.250000  0.400389  1
  O  O42  1  0.168106  0.512147  0.194843  1
  O  O43  1  0.168106  0.987853  0.194843  1
  O  O44  1  0.174660  0.009065  0.874360  1
  O  O45  1  0.174660  0.490935  0.874360  1
  O  O46  1  0.250000  0.250000  0.684229  1
  O  O47  1  0.250000  0.508976  0.459501  1
  O  O48  1  0.250000  0.750000  0.033894  1
  O  O49  1  0.250000  0.750000  0.695301  1
  O  O50  1  0.250000  0.250000  0.055427  1
  O  O51  1  0.250000  0.991024  0.459500  1
  O  O52  1  0.325340  0.009065  0.874360  1
  O  O53  1  0.325340  0.490935  0.874360  1
  O  O54  1  0.331894  0.512147  0.194843  1
  O  O55  1  0.331894  0.987853  0.194843  1
  O  O56  1  0.361823  0.250000  0.400389  1
  O  O57  1  0.368694  0.001426  0.620742  1
  O  O58  1  0.368694  0.498574  0.620742  1
  O  O59  1  0.373613  0.750000  0.405174  1
  O  O60  1  0.434500  0.750000  0.824278  1
  O  O61  1  0.446075  0.250000  0.810840  1
  O  O62  1  0.475340  0.013186  0.330768  1
  O  O63  1  0.475340  0.486814  0.330768  1
  O  O64  1  0.500000  0.000000  0.000000  1
  O  O65  1  0.500000  0.500000  0.000000  1
  O  O66  1  0.524660  0.513186  0.669232  1
  O  O67  1  0.524660  0.986814  0.669232  1
  O  O68  1  0.553925  0.750000  0.189160  1
  O  O69  1  0.565500  0.250000  0.175722  1
  O  O70  1  0.626387  0.250000  0.594826  1
  O  O71  1  0.631306  0.501426  0.379258  1
  O  O72  1  0.631306  0.998574  0.379258  1
  O  O73  1  0.638177  0.750000  0.599611  1
  O  O74  1  0.668106  0.012147  0.805157  1
  O  O75  1  0.668106  0.487853  0.805157  1
  O  O76  1  0.674660  0.509065  0.125640  1
  O  O77  1  0.674660  0.990935  0.125640  1
  O  O78  1  0.750000  0.008976  0.540500  1
  O  O79  1  0.750000  0.250000  0.966106  1
  O  O80  1  0.750000  0.250000  0.304699  1
  O  O81  1  0.750000  0.491024  0.540499  1
  O  O82  1  0.750000  0.750000  0.315771  1
  O  O83  1  0.750000  0.750000  0.944573  1
  O  O84  1  0.825340  0.509065  0.125640  1
  O  O85  1  0.825340  0.990935  0.125640  1
  O  O86  1  0.831894  0.012147  0.805157  1
  O  O87  1  0.831894  0.487853  0.805157  1
  O  O88  1  0.861823  0.750000  0.599611  1
  O  O89  1  0.868694  0.501426  0.379258  1
  O  O90  1  0.868694  0.998574  0.379258  1
  O  O91  1  0.873613  0.250000  0.594826  1
  O  O92  1  0.934500  0.250000  0.175722  1
  O  O93  1  0.946075  0.750000  0.189160  1
  O  O94  1  0.975340  0.513186  0.669232  1
  O  O95  1  0.975340  0.986814  0.669232  1
