# generated using pymatgen
data_Ta24Cu13O72
_symmetry_space_group_name_H-M   'P 1'
_cell_length_a   7.59553704
_cell_length_b   22.74376369
_cell_length_c   10.75290296
_cell_angle_alpha   45.14973180
_cell_angle_beta   90.00000000
_cell_angle_gamma   90.00000000
_symmetry_Int_Tables_number   1
_chemical_formula_structural   Ta24Cu13O72
_chemical_formula_sum   'Ta24 Cu13 O72'
_cell_volume   1316.93256057
_cell_formula_units_Z   1
loop_
 _symmetry_equiv_pos_site_id
 _symmetry_equiv_pos_as_xyz
  1  'x, y, z'
loop_
 _atom_site_type_symbol
 _atom_site_label
 _atom_site_symmetry_multiplicity
 _atom_site_fract_x
 _atom_site_fract_y
 _atom_site_fract_z
 _atom_site_occupancy
  Cu  Cu0  1  0.000000  0.165431  0.002164  1
  Cu  Cu1  1  0.000000  0.500000  0.000000  1
  Cu  Cu2  1  0.000000  0.166742  0.499183  1
  Cu  Cu3  1  0.000000  0.834569  0.997836  1
  Cu  Cu4  1  0.000000  0.500000  0.500000  1
  Cu  Cu5  1  0.000000  0.833258  0.500817  1
  Cu  Cu6  1  0.500000  0.000000  0.000000  1
  Cu  Cu7  1  0.500000  0.333108  0.000995  1
  Cu  Cu8  1  0.500000  0.666892  0.999005  1
  Cu  Cu9  1  0.500000  0.500000  0.500000  1
  Cu  Cu10  1  0.000000  0.000000  0.500000  1
  Cu  Cu11  1  0.000000  0.333085  0.500334  1
  Cu  Cu12  1  0.000000  0.666915  0.499666  1
  O  O13  1  0.000000  0.041707  0.180417  1
  O  O14  1  0.000000  0.171830  0.178294  1
  O  O15  1  0.000000  0.505466  0.180524  1
  O  O16  1  0.000000  0.708491  0.179483  1
  O  O17  1  0.000000  0.836883  0.179643  1
  O  O18  1  0.000000  0.958293  0.819583  1
  O  O19  1  0.182227  0.230226  0.309885  1
  O  O20  1  0.181979  0.104222  0.688262  1
  O  O21  1  0.182493  0.562665  0.312234  1
  O  O22  1  0.182493  0.437335  0.687766  1
  O  O23  1  0.181979  0.895778  0.311738  1
  O  O24  1  0.182227  0.769774  0.690115  1
  O  O25  1  0.186857  0.062883  0.499560  1
  O  O26  1  0.187010  0.270933  0.499549  1
  O  O27  1  0.186346  0.396151  0.500001  1
  O  O28  1  0.186346  0.603849  0.499999  1
  O  O29  1  0.187010  0.729067  0.500451  1
  O  O30  1  0.186857  0.937117  0.500440  1
  O  O31  1  0.299406  0.097644  0.206753  1
  O  O32  1  0.301391  0.431307  0.207823  1
  O  O33  1  0.301811  0.763413  0.208277  1
  O  O34  1  0.301811  0.236587  0.791723  1
  O  O35  1  0.301391  0.568693  0.792177  1
  O  O36  1  0.299406  0.902356  0.793247  1
  O  O37  1  0.305762  0.060645  -0.000258  1
  O  O38  1  0.307820  0.272994  0.998244  1
  O  O39  1  0.307518  0.394859  0.998722  1
  O  O40  1  0.307518  0.605141  0.001278  1
  O  O41  1  0.307820  0.727006  0.001756  1
  O  O42  1  0.305762  0.939355  1.000258  1
  O  O43  1  0.500000  0.033532  0.695381  1
  O  O44  1  0.500000  0.301234  0.303134  1
  O  O45  1  0.500000  0.375610  0.682494  1
  O  O46  1  0.500000  0.164208  0.303126  1
  O  O47  1  0.500000  0.170447  0.695790  1
  O  O48  1  0.500000  0.497455  0.317329  1
  O  O49  1  0.500000  0.502545  0.682670  1
  O  O50  1  0.500000  0.624390  0.317506  1
  O  O51  1  0.500000  0.698766  0.696866  1
  O  O52  1  0.500000  0.829553  0.304210  1
  O  O53  1  0.500000  0.966468  0.304619  1
  O  O54  1  0.500000  0.835792  0.696874  1
  O  O55  1  0.694238  0.060645  -0.000258  1
  O  O56  1  0.692180  0.272994  0.998244  1
  O  O57  1  0.692482  0.394859  0.998722  1
  O  O58  1  0.692482  0.605141  0.001278  1
  O  O59  1  0.692180  0.727006  0.001756  1
  O  O60  1  0.694238  0.939355  1.000258  1
  O  O61  1  0.700594  0.097644  0.206753  1
  O  O62  1  0.698609  0.431307  0.207823  1
  O  O63  1  0.698189  0.236587  0.791723  1
  O  O64  1  0.698189  0.763413  0.208277  1
  O  O65  1  0.698609  0.568693  0.792177  1
  O  O66  1  0.700594  0.902356  0.793247  1
  O  O67  1  0.813143  0.062883  0.499560  1
  O  O68  1  0.812990  0.270933  0.499549  1
  O  O69  1  0.813654  0.396151  0.500001  1
  O  O70  1  0.813654  0.603849  0.499999  1
  O  O71  1  0.812990  0.729067  0.500451  1
  O  O72  1  0.813143  0.937117  0.500440  1
  O  O73  1  0.817773  0.230226  0.309885  1
  O  O74  1  0.818021  0.104222  0.688262  1
  O  O75  1  0.817507  0.562665  0.312234  1
  O  O76  1  0.818021  0.895778  0.311738  1
  O  O77  1  0.817507  0.437335  0.687766  1
  O  O78  1  0.817773  0.769774  0.690115  1
  O  O79  1  0.000000  0.376579  0.178930  1
  O  O80  1  0.000000  0.163117  0.820357  1
  O  O81  1  0.000000  0.291509  0.820517  1
  O  O82  1  0.000000  0.494534  0.819476  1
  O  O83  1  0.000000  0.623421  0.821070  1
  O  O84  1  0.000000  0.828170  0.821706  1
  Ta  Ta85  1  0.251494  0.330885  0.752933  1
  Ta  Ta86  1  0.254018  0.667078  0.748873  1
  Ta  Ta87  1  0.255210  0.999462  0.750231  1
  Ta  Ta88  1  0.254945  0.165610  0.250422  1
  Ta  Ta89  1  0.254366  0.166457  0.750069  1
  Ta  Ta90  1  0.251442  0.499417  0.247614  1
  Ta  Ta91  1  0.251442  0.500583  0.752386  1
  Ta  Ta92  1  0.254366  0.833543  0.249931  1
  Ta  Ta93  1  0.254945  0.834390  0.749578  1
  Ta  Ta94  1  0.255210  0.000538  0.249769  1
  Ta  Ta95  1  0.254018  0.332922  0.251127  1
  Ta  Ta96  1  0.251494  0.669115  0.247067  1
  Ta  Ta97  1  0.748506  0.330885  0.752933  1
  Ta  Ta98  1  0.745982  0.667078  0.748873  1
  Ta  Ta99  1  0.744790  0.999462  0.750231  1
  Ta  Ta100  1  0.745055  0.165610  0.250422  1
  Ta  Ta101  1  0.745634  0.166457  0.750069  1
  Ta  Ta102  1  0.748558  0.499417  0.247614  1
  Ta  Ta103  1  0.745634  0.833543  0.249931  1
  Ta  Ta104  1  0.748558  0.500583  0.752386  1
  Ta  Ta105  1  0.745055  0.834390  0.749578  1
  Ta  Ta106  1  0.744790  0.000538  0.249769  1
  Ta  Ta107  1  0.745982  0.332922  0.251127  1
  Ta  Ta108  1  0.748506  0.669115  0.247067  1
