# generated using pymatgen
data_Ag2Mo2O7
_symmetry_space_group_name_H-M   'P 1'
_cell_length_a   6.19747511
_cell_length_b   8.08421813
_cell_length_c   13.39814336
_cell_angle_alpha   90.00000000
_cell_angle_beta   90.00000000
_cell_angle_gamma   110.30883704
_symmetry_Int_Tables_number   1
_chemical_formula_structural   Ag2Mo2O7
_chemical_formula_sum   'Ag8 Mo8 O28'
_cell_volume   629.54106325
_cell_formula_units_Z   4
loop_
 _symmetry_equiv_pos_site_id
 _symmetry_equiv_pos_as_xyz
  1  'x, y, z'
loop_
 _atom_site_type_symbol
 _atom_site_label
 _atom_site_symmetry_multiplicity
 _atom_site_fract_x
 _atom_site_fract_y
 _atom_site_fract_z
 _atom_site_occupancy
  Ag  Ag0  1  0.077774  0.527676  0.227571  1
  Ag  Ag1  1  0.542937  0.407973  0.095440  1
  Ag  Ag2  1  0.922226  0.472324  0.772429  1
  Ag  Ag3  1  0.077774  0.027676  0.272429  1
  Ag  Ag4  1  0.457063  0.592027  0.904560  1
  Ag  Ag5  1  0.542937  0.907973  0.404560  1
  Ag  Ag6  1  0.457063  0.092027  0.595440  1
  Ag  Ag7  1  0.922226  0.972324  0.727571  1
  Mo  Mo8  1  0.030386  0.802796  0.995046  1
  Mo  Mo9  1  0.030386  0.302796  0.504954  1
  Mo  Mo10  1  0.522121  0.898052  0.121482  1
  Mo  Mo11  1  0.969614  0.697204  0.495046  1
  Mo  Mo12  1  0.477879  0.101948  0.878518  1
  Mo  Mo13  1  0.522121  0.398052  0.378518  1
  Mo  Mo14  1  0.969614  0.197204  0.004954  1
  Mo  Mo15  1  0.477879  0.601948  0.621482  1
  O  O16  1  0.245794  0.930330  0.139203  1
  O  O17  1  0.942136  0.112515  0.428694  1
  O  O18  1  0.438388  0.663354  0.123052  1
  O  O19  1  0.648242  0.154391  0.042969  1
  O  O20  1  0.942136  0.612515  0.071306  1
  O  O21  1  0.329649  0.534325  0.735703  1
  O  O22  1  0.178691  0.081873  0.956516  1
  O  O23  1  0.107107  0.274140  0.120735  1
  O  O24  1  0.670351  0.465675  0.264297  1
  O  O25  1  0.178691  0.581873  0.543484  1
  O  O26  1  0.438388  0.163354  0.376948  1
  O  O27  1  0.107107  0.774140  0.379265  1
  O  O28  1  0.892893  0.225860  0.620735  1
  O  O29  1  0.754206  0.069670  0.860797  1
  O  O30  1  0.670351  0.965675  0.235703  1
  O  O31  1  0.821309  0.418127  0.456516  1
  O  O32  1  0.561612  0.336646  0.876948  1
  O  O33  1  0.057864  0.387485  0.928694  1
  O  O34  1  0.057864  0.887485  0.571306  1
  O  O35  1  0.245794  0.430330  0.360797  1
  O  O36  1  0.561612  0.836646  0.623052  1
  O  O37  1  0.351758  0.345609  0.542969  1
  O  O38  1  0.754206  0.569670  0.639203  1
  O  O39  1  0.821309  0.918127  0.043484  1
  O  O40  1  0.329649  0.034325  0.764297  1
  O  O41  1  0.648242  0.654391  0.457031  1
  O  O42  1  0.351758  0.845609  0.957031  1
  O  O43  1  0.892893  0.725860  0.879265  1
