# generated using pymatgen
data_Ta2CuO6
_symmetry_space_group_name_H-M   'P 1'
_cell_length_a   7.58869399
_cell_length_b   7.58608754
_cell_length_c   30.39835104
_cell_angle_alpha   90.00000000
_cell_angle_beta   90.00000000
_cell_angle_gamma   90.00000000
_symmetry_Int_Tables_number   1
_chemical_formula_structural   Ta2CuO6
_chemical_formula_sum   'Ta32 Cu16 O96'
_cell_volume   1749.98737829
_cell_formula_units_Z   16
loop_
 _symmetry_equiv_pos_site_id
 _symmetry_equiv_pos_as_xyz
  1  'x, y, z'
loop_
 _atom_site_type_symbol
 _atom_site_label
 _atom_site_symmetry_multiplicity
 _atom_site_fract_x
 _atom_site_fract_y
 _atom_site_fract_z
 _atom_site_occupancy
  Cu  Cu0  1  0.000000  0.500000  0.000319  1
  Cu  Cu1  1  0.000000  0.000000  0.125273  1
  Cu  Cu2  1  0.000000  0.500000  0.249700  1
  Cu  Cu3  1  0.000000  0.500000  0.375388  1
  Cu  Cu4  1  0.000000  0.000000  0.374776  1
  Cu  Cu5  1  0.000000  0.000000  0.625603  1
  Cu  Cu6  1  0.000000  0.500000  0.624590  1
  Cu  Cu7  1  0.000000  0.500000  0.875993  1
  Cu  Cu8  1  0.000000  0.000000  0.874988  1
  Cu  Cu9  1  0.500000  0.000000  0.248817  1
  Cu  Cu10  1  0.500000  0.000000  0.750325  1
  Cu  Cu11  1  0.500000  0.000000  0.124882  1
  Cu  Cu12  1  0.500000  0.000000  0.625212  1
  Cu  Cu13  1  0.500000  0.500000  0.499926  1
  Cu  Cu14  1  0.500000  0.000000  0.376284  1
  Cu  Cu15  1  0.500000  0.000000  0.873629  1
  O  O16  1  0.000000  0.688762  0.046008  1
  O  O17  1  0.000000  0.307459  0.294820  1
  O  O18  1  0.000000  0.691150  0.205607  1
  O  O19  1  0.000000  0.692541  0.294820  1
  O  O20  1  0.000000  0.296427  0.449594  1
  O  O21  1  0.000000  0.295431  0.550014  1
  O  O22  1  0.000000  0.703573  0.449594  1
  O  O23  1  0.000000  0.704569  0.550014  1
  O  O24  1  0.000000  0.286155  0.796762  1
  O  O25  1  0.000000  0.714166  0.701742  1
  O  O26  1  0.000000  0.713845  0.796762  1
  O  O27  1  0.000000  0.687870  0.954025  1
  O  O28  1  0.178498  0.000000  0.077261  1
  O  O29  1  0.178328  0.000000  0.174119  1
  O  O30  1  0.181511  0.000000  0.327980  1
  O  O31  1  0.186077  0.000000  0.421343  1
  O  O32  1  0.185940  0.000000  0.578113  1
  O  O33  1  0.188778  0.000000  0.670185  1
  O  O34  1  0.187290  0.000000  0.829791  1
  O  O35  1  0.180180  0.000000  0.922138  1
  O  O36  1  0.202955  0.700918  0.125356  1
  O  O37  1  0.202955  0.299082  0.125356  1
  O  O38  1  0.189224  0.683317  0.374572  1
  O  O39  1  0.189224  0.316683  0.374572  1
  O  O40  1  0.191274  0.319211  0.624588  1
  O  O41  1  0.191274  0.680789  0.624588  1
  O  O42  1  0.185246  0.314408  0.874909  1
  O  O43  1  0.185246  0.685592  0.874909  1
  O  O44  1  0.296162  0.195092  0.999843  1
  O  O45  1  0.312295  0.182304  0.250906  1
  O  O46  1  0.296162  0.804908  0.999843  1
  O  O47  1  0.293546  0.193448  0.499800  1
  O  O48  1  0.312295  0.817696  0.250906  1
  O  O49  1  0.311283  0.181286  0.749936  1
  O  O50  1  0.293546  0.806552  0.499800  1
  O  O51  1  0.311283  0.818714  0.749936  1
  O  O52  1  0.309075  0.500000  0.053417  1
  O  O53  1  0.306737  0.500000  0.199188  1
  O  O54  1  0.305939  0.500000  0.301444  1
  O  O55  1  0.321091  0.500000  0.451702  1
  O  O56  1  0.321153  0.500000  0.547484  1
  O  O57  1  0.304464  0.500000  0.801586  1
  O  O58  1  0.303837  0.500000  0.698562  1
  O  O59  1  0.309054  0.500000  0.946711  1
  O  O60  1  0.500000  0.184921  0.078660  1
  O  O61  1  0.500000  0.184351  0.172119  1
  O  O62  1  0.500000  0.188526  0.330275  1
  O  O63  1  0.500000  0.188648  0.579401  1
  O  O64  1  0.500000  0.815079  0.078660  1
  O  O65  1  0.500000  0.189117  0.420533  1
  O  O66  1  0.500000  0.811474  0.330275  1
  O  O67  1  0.500000  0.188764  0.670541  1
  O  O68  1  0.500000  0.188914  0.828935  1
  O  O69  1  0.500000  0.810883  0.420533  1
  O  O70  1  0.500000  0.811352  0.579401  1
  O  O71  1  0.500000  0.187389  0.919970  1
  O  O72  1  0.500000  0.815649  0.172119  1
  O  O73  1  0.500000  0.811086  0.828935  1
  O  O74  1  0.500000  0.812611  0.919970  1
  O  O75  1  0.500000  0.811236  0.670541  1
  O  O76  1  0.690925  0.500000  0.053417  1
  O  O77  1  0.693263  0.500000  0.199188  1
  O  O78  1  0.694061  0.500000  0.301444  1
  O  O79  1  0.678909  0.500000  0.451702  1
  O  O80  1  0.678847  0.500000  0.547484  1
  O  O81  1  0.696163  0.500000  0.698562  1
  O  O82  1  0.695536  0.500000  0.801586  1
  O  O83  1  0.690946  0.500000  0.946711  1
  O  O84  1  0.703838  0.195092  0.999843  1
  O  O85  1  0.703838  0.804908  0.999843  1
  O  O86  1  0.687705  0.182304  0.250906  1
  O  O87  1  0.706454  0.193448  0.499800  1
  O  O88  1  0.687705  0.817696  0.250906  1
  O  O89  1  0.706454  0.806552  0.499800  1
  O  O90  1  0.688717  0.181286  0.749936  1
  O  O91  1  0.688717  0.818714  0.749936  1
  O  O92  1  0.797045  0.299082  0.125356  1
  O  O93  1  0.797045  0.700918  0.125356  1
  O  O94  1  0.810776  0.316683  0.374572  1
  O  O95  1  0.808726  0.319211  0.624588  1
  O  O96  1  0.810776  0.683317  0.374572  1
  O  O97  1  0.808726  0.680789  0.624588  1
  O  O98  1  0.814754  0.314408  0.874909  1
  O  O99  1  0.814754  0.685592  0.874909  1
  O  O100  1  0.821502  0.000000  0.077261  1
  O  O101  1  0.818489  0.000000  0.327980  1
  O  O102  1  0.814060  0.000000  0.578113  1
  O  O103  1  0.821672  0.000000  0.174119  1
  O  O104  1  0.813923  0.000000  0.421343  1
  O  O105  1  0.811222  0.000000  0.670185  1
  O  O106  1  0.812710  0.000000  0.829791  1
  O  O107  1  0.819820  0.000000  0.922138  1
  O  O108  1  0.000000  0.311238  0.046008  1
  O  O109  1  0.000000  0.308850  0.205607  1
  O  O110  1  0.000000  0.285834  0.701742  1
  O  O111  1  0.000000  0.312130  0.954025  1
  Ta  Ta112  1  0.248333  0.742861  0.185335  1
  Ta  Ta113  1  0.247741  0.750574  0.439255  1
  Ta  Ta114  1  0.248152  0.744883  0.688626  1
  Ta  Ta115  1  0.255194  0.748526  0.939694  1
  Ta  Ta116  1  0.252242  0.746788  0.061641  1
  Ta  Ta117  1  0.248333  0.257139  0.185335  1
  Ta  Ta118  1  0.252949  0.746668  0.311465  1
  Ta  Ta119  1  0.247741  0.249426  0.439255  1
  Ta  Ta120  1  0.247765  0.750342  0.561490  1
  Ta  Ta121  1  0.245664  0.743504  0.812393  1
  Ta  Ta122  1  0.248152  0.255117  0.688626  1
  Ta  Ta123  1  0.255194  0.251474  0.939694  1
  Ta  Ta124  1  0.252242  0.253212  0.061641  1
  Ta  Ta125  1  0.252949  0.253331  0.311465  1
  Ta  Ta126  1  0.247765  0.249658  0.561490  1
  Ta  Ta127  1  0.245664  0.256496  0.812393  1
  Ta  Ta128  1  0.751667  0.742861  0.185335  1
  Ta  Ta129  1  0.752259  0.750574  0.439255  1
  Ta  Ta130  1  0.751848  0.744883  0.688626  1
  Ta  Ta131  1  0.744806  0.748526  0.939694  1
  Ta  Ta132  1  0.751667  0.257139  0.185335  1
  Ta  Ta133  1  0.747758  0.746788  0.061641  1
  Ta  Ta134  1  0.747051  0.746668  0.311465  1
  Ta  Ta135  1  0.752235  0.750342  0.561490  1
  Ta  Ta136  1  0.754336  0.743504  0.812393  1
  Ta  Ta137  1  0.752259  0.249426  0.439255  1
  Ta  Ta138  1  0.751848  0.255117  0.688626  1
  Ta  Ta139  1  0.744806  0.251474  0.939694  1
  Ta  Ta140  1  0.747758  0.253212  0.061641  1
  Ta  Ta141  1  0.747051  0.253331  0.311465  1
  Ta  Ta142  1  0.752235  0.249658  0.561490  1
  Ta  Ta143  1  0.754336  0.256496  0.812393  1
