# generated using pymatgen
data_Ta32Cu17O96
_symmetry_space_group_name_H-M   'P 1'
_cell_length_a   7.57275330
_cell_length_b   7.58866151
_cell_length_c   30.51388974
_cell_angle_alpha   90.00000000
_cell_angle_beta   90.00000000
_cell_angle_gamma   90.00000000
_symmetry_Int_Tables_number   1
_chemical_formula_structural   Ta32Cu17O96
_chemical_formula_sum   'Ta32 Cu17 O96'
_cell_volume   1753.54357806
_cell_formula_units_Z   1
loop_
 _symmetry_equiv_pos_site_id
 _symmetry_equiv_pos_as_xyz
  1  'x, y, z'
loop_
 _atom_site_type_symbol
 _atom_site_label
 _atom_site_symmetry_multiplicity
 _atom_site_fract_x
 _atom_site_fract_y
 _atom_site_fract_z
 _atom_site_occupancy
  Cu  Cu0  1  0.000000  0.000000  0.124968  1
  Cu  Cu1  1  0.000000  0.500000  0.125196  1
  Cu  Cu2  1  0.000000  0.000000  0.375032  1
  Cu  Cu3  1  0.000000  0.500000  0.374804  1
  Cu  Cu4  1  0.000000  0.000000  0.624833  1
  Cu  Cu5  1  0.000000  0.500000  0.624696  1
  Cu  Cu6  1  0.000000  0.500000  0.750000  1
  Cu  Cu7  1  0.000000  0.000000  0.875167  1
  Cu  Cu8  1  0.000000  0.500000  0.875304  1
  Cu  Cu9  1  0.500000  0.000000  0.000657  1
  Cu  Cu10  1  0.500000  0.000000  0.250000  1
  Cu  Cu11  1  0.500000  0.000000  0.499343  1
  Cu  Cu12  1  0.500000  0.000000  0.750000  1
  Cu  Cu13  1  0.500000  0.000000  0.124885  1
  Cu  Cu14  1  0.500000  0.000000  0.375115  1
  Cu  Cu15  1  0.500000  0.000000  0.623854  1
  Cu  Cu16  1  0.500000  0.000000  0.876146  1
  O  O17  1  0.000000  0.286977  0.047519  1
  O  O18  1  0.000000  0.713023  0.047519  1
  O  O19  1  0.000000  0.286840  0.202143  1
  O  O20  1  0.000000  0.286840  0.297857  1
  O  O21  1  0.000000  0.713160  0.297857  1
  O  O22  1  0.000000  0.286977  0.452481  1
  O  O23  1  0.000000  0.287603  0.548323  1
  O  O24  1  0.000000  0.712397  0.548323  1
  O  O25  1  0.000000  0.305080  0.705108  1
  O  O26  1  0.000000  0.305080  0.794892  1
  O  O27  1  0.000000  0.694920  0.705108  1
  O  O28  1  0.000000  0.694920  0.794892  1
  O  O29  1  0.188188  0.000000  0.078989  1
  O  O30  1  0.188095  0.000000  0.329194  1
  O  O31  1  0.188095  0.000000  0.170806  1
  O  O32  1  0.188509  0.000000  0.579568  1
  O  O33  1  0.182371  0.000000  0.672914  1
  O  O34  1  0.188188  0.000000  0.421011  1
  O  O35  1  0.182371  0.000000  0.827086  1
  O  O36  1  0.188509  0.000000  0.920432  1
  O  O37  1  0.188673  0.315888  0.124915  1
  O  O38  1  0.188673  0.684112  0.124915  1
  O  O39  1  0.188673  0.684112  0.375085  1
  O  O40  1  0.188673  0.315888  0.375085  1
  O  O41  1  0.188309  0.312903  0.625841  1
  O  O42  1  0.188309  0.687097  0.625841  1
  O  O43  1  0.188309  0.312903  0.874159  1
  O  O44  1  0.188309  0.687097  0.874159  1
  O  O45  1  0.304078  0.500000  0.197993  1
  O  O46  1  0.304560  0.500000  0.448358  1
  O  O47  1  0.305922  0.500000  0.698464  1
  O  O48  1  0.303724  0.500000  0.947039  1
  O  O49  1  0.304560  0.500000  0.051642  1
  O  O50  1  0.304078  0.500000  0.302007  1
  O  O51  1  0.303724  0.500000  0.552961  1
  O  O52  1  0.305922  0.500000  0.801536  1
  O  O53  1  0.309891  0.183475  0.999786  1
  O  O54  1  0.310679  0.183130  0.250000  1
  O  O55  1  0.309891  0.816525  0.999786  1
  O  O56  1  0.309891  0.183475  0.500214  1
  O  O57  1  0.310679  0.816870  0.250000  1
  O  O58  1  0.309702  0.184963  0.750000  1
  O  O59  1  0.309891  0.816525  0.500214  1
  O  O60  1  0.309702  0.815037  0.750000  1
  O  O61  1  0.500000  0.811469  0.329572  1
  O  O62  1  0.500000  0.188531  0.170428  1
  O  O63  1  0.500000  0.811699  0.079146  1
  O  O64  1  0.500000  0.188301  0.420854  1
  O  O65  1  0.500000  0.811363  0.829418  1
  O  O66  1  0.500000  0.188637  0.670582  1
  O  O67  1  0.500000  0.809824  0.579454  1
  O  O68  1  0.500000  0.190176  0.920546  1
  O  O69  1  0.500000  0.188301  0.079146  1
  O  O70  1  0.500000  0.188531  0.329572  1
  O  O71  1  0.500000  0.190176  0.579454  1
  O  O72  1  0.500000  0.188637  0.829418  1
  O  O73  1  0.500000  0.811699  0.420854  1
  O  O74  1  0.500000  0.811469  0.170428  1
  O  O75  1  0.500000  0.809824  0.920546  1
  O  O76  1  0.500000  0.811363  0.670582  1
  O  O77  1  0.690109  0.183475  0.999786  1
  O  O78  1  0.690109  0.816525  0.999786  1
  O  O79  1  0.689322  0.183130  0.250000  1
  O  O80  1  0.690109  0.183475  0.500214  1
  O  O81  1  0.689322  0.816870  0.250000  1
  O  O82  1  0.690109  0.816525  0.500214  1
  O  O83  1  0.690298  0.184963  0.750000  1
  O  O84  1  0.690298  0.815037  0.750000  1
  O  O85  1  0.695440  0.500000  0.051642  1
  O  O86  1  0.695922  0.500000  0.302007  1
  O  O87  1  0.694078  0.500000  0.801536  1
  O  O88  1  0.696276  0.500000  0.552961  1
  O  O89  1  0.695922  0.500000  0.197993  1
  O  O90  1  0.695440  0.500000  0.448358  1
  O  O91  1  0.694078  0.500000  0.698464  1
  O  O92  1  0.696276  0.500000  0.947039  1
  O  O93  1  0.811327  0.315888  0.124915  1
  O  O94  1  0.811327  0.684112  0.124915  1
  O  O95  1  0.811327  0.315888  0.375085  1
  O  O96  1  0.811690  0.312903  0.625841  1
  O  O97  1  0.811327  0.684112  0.375085  1
  O  O98  1  0.811690  0.687097  0.625841  1
  O  O99  1  0.811690  0.312903  0.874159  1
  O  O100  1  0.811690  0.687097  0.874159  1
  O  O101  1  0.811812  0.000000  0.078989  1
  O  O102  1  0.811905  0.000000  0.170806  1
  O  O103  1  0.811905  0.000000  0.329194  1
  O  O104  1  0.811491  0.000000  0.579568  1
  O  O105  1  0.817629  0.000000  0.672914  1
  O  O106  1  0.817629  0.000000  0.827086  1
  O  O107  1  0.811812  0.000000  0.421011  1
  O  O108  1  0.811491  0.000000  0.920432  1
  O  O109  1  0.000000  0.713160  0.202143  1
  O  O110  1  0.000000  0.713023  0.452481  1
  O  O111  1  0.000000  0.287603  0.951677  1
  O  O112  1  0.000000  0.712397  0.951677  1
  Ta  Ta113  1  0.247803  0.745369  0.188477  1
  Ta  Ta114  1  0.246966  0.744420  0.437811  1
  Ta  Ta115  1  0.251255  0.746152  0.687573  1
  Ta  Ta116  1  0.248227  0.746061  0.939055  1
  Ta  Ta117  1  0.246966  0.744420  0.062189  1
  Ta  Ta118  1  0.247803  0.254631  0.188477  1
  Ta  Ta119  1  0.247803  0.745369  0.311523  1
  Ta  Ta120  1  0.246966  0.255580  0.437811  1
  Ta  Ta121  1  0.248227  0.746061  0.560945  1
  Ta  Ta122  1  0.251255  0.253848  0.687573  1
  Ta  Ta123  1  0.248227  0.253939  0.939055  1
  Ta  Ta124  1  0.251255  0.746152  0.812427  1
  Ta  Ta125  1  0.246966  0.255580  0.062189  1
  Ta  Ta126  1  0.247803  0.254631  0.311523  1
  Ta  Ta127  1  0.248227  0.253939  0.560945  1
  Ta  Ta128  1  0.251255  0.253848  0.812427  1
  Ta  Ta129  1  0.752197  0.745369  0.188477  1
  Ta  Ta130  1  0.753034  0.744420  0.437811  1
  Ta  Ta131  1  0.748745  0.746152  0.687573  1
  Ta  Ta132  1  0.751773  0.746061  0.939055  1
  Ta  Ta133  1  0.752197  0.254631  0.188477  1
  Ta  Ta134  1  0.753034  0.744420  0.062189  1
  Ta  Ta135  1  0.753034  0.255580  0.437811  1
  Ta  Ta136  1  0.748745  0.253848  0.687573  1
  Ta  Ta137  1  0.752197  0.745369  0.311523  1
  Ta  Ta138  1  0.751773  0.746061  0.560945  1
  Ta  Ta139  1  0.748745  0.746152  0.812427  1
  Ta  Ta140  1  0.751773  0.253939  0.939055  1
  Ta  Ta141  1  0.753034  0.255580  0.062189  1
  Ta  Ta142  1  0.752197  0.254631  0.311523  1
  Ta  Ta143  1  0.751773  0.253939  0.560945  1
  Ta  Ta144  1  0.748745  0.253848  0.812427  1
