# generated using pymatgen
data_Ta2CrO6
_symmetry_space_group_name_H-M   'P 1'
_cell_length_a   4.81842660
_cell_length_b   4.82045146
_cell_length_c   9.38381732
_cell_angle_alpha   89.99832904
_cell_angle_beta   91.64054141
_cell_angle_gamma   90.01474765
_symmetry_Int_Tables_number   1
_chemical_formula_structural   Ta2CrO6
_chemical_formula_sum   'Ta4 Cr2 O12'
_cell_volume   217.86849920
_cell_formula_units_Z   2
loop_
 _symmetry_equiv_pos_site_id
 _symmetry_equiv_pos_as_xyz
  1  'x, y, z'
loop_
 _atom_site_type_symbol
 _atom_site_label
 _atom_site_symmetry_multiplicity
 _atom_site_fract_x
 _atom_site_fract_y
 _atom_site_fract_z
 _atom_site_occupancy
  Ta  Ta0  1  0.502318  0.490463  0.832118  1
  Ta  Ta1  1  0.997764  0.990460  0.668023  1
  Ta  Ta2  1  0.497682  0.509539  0.167882  1
  Ta  Ta3  1  0.002235  0.009541  0.331978  1
  Cr  Cr4  1  0.000000  0.000000  0.000000  1
  Cr  Cr5  1  0.500000  0.500000  0.500000  1
  O  O6  1  0.712021  0.722949  0.312018  1
  O  O7  1  0.212180  0.777074  0.811805  1
  O  O8  1  0.287979  0.277050  0.687981  1
  O  O9  1  0.787820  0.222928  0.188196  1
  O  O10  1  0.313574  0.313268  0.999635  1
  O  O11  1  0.186371  0.813310  0.500345  1
  O  O12  1  0.813629  0.186689  0.499655  1
  O  O13  1  0.686426  0.686732  0.000365  1
  O  O14  1  0.201442  0.807617  0.176675  1
  O  O15  1  0.798558  0.192383  0.823325  1
  O  O16  1  0.298441  0.307665  0.323466  1
  O  O17  1  0.701559  0.692334  0.676533  1
