# generated using pymatgen
data_TaCrO4
_symmetry_space_group_name_H-M   'P 1'
_cell_length_a   4.49288664
_cell_length_b   11.94080295
_cell_length_c   5.02625505
_cell_angle_alpha   90.00000000
_cell_angle_beta   90.00000000
_cell_angle_gamma   90.00000000
_symmetry_Int_Tables_number   1
_chemical_formula_structural   TaCrO4
_chemical_formula_sum   'Ta4 Cr4 O16'
_cell_volume   269.65191884
_cell_formula_units_Z   4
loop_
 _symmetry_equiv_pos_site_id
 _symmetry_equiv_pos_as_xyz
  1  'x, y, z'
loop_
 _atom_site_type_symbol
 _atom_site_label
 _atom_site_symmetry_multiplicity
 _atom_site_fract_x
 _atom_site_fract_y
 _atom_site_fract_z
 _atom_site_occupancy
  Ta  Ta0  1  0.000000  0.424263  0.250000  1
  Ta  Ta1  1  0.000000  0.575737  0.750000  1
  Ta  Ta2  1  0.500000  0.075737  0.750000  1
  Ta  Ta3  1  0.500000  0.924263  0.250000  1
  Cr  Cr4  1  0.000000  0.178049  0.250000  1
  Cr  Cr5  1  0.000000  0.821951  0.750000  1
  Cr  Cr6  1  0.500000  0.678049  0.250000  1
  Cr  Cr7  1  0.500000  0.321951  0.750000  1
  O  O8  1  0.233108  0.309865  0.419083  1
  O  O9  1  0.233108  0.690135  0.919083  1
  O  O10  1  0.241144  0.444102  0.918220  1
  O  O11  1  0.241144  0.555898  0.418220  1
  O  O12  1  0.258856  0.055898  0.418220  1
  O  O13  1  0.258856  0.944102  0.918220  1
  O  O14  1  0.266892  0.190135  0.919083  1
  O  O15  1  0.266892  0.809865  0.419083  1
  O  O16  1  0.733108  0.190135  0.580917  1
  O  O17  1  0.733108  0.809865  0.080917  1
  O  O18  1  0.741144  0.055898  0.081780  1
  O  O19  1  0.741144  0.944102  0.581780  1
  O  O20  1  0.758856  0.444102  0.581780  1
  O  O21  1  0.758856  0.555898  0.081780  1
  O  O22  1  0.766892  0.309865  0.080917  1
  O  O23  1  0.766892  0.690135  0.580917  1
