# generated using pymatgen
data_TaFeO4
_symmetry_space_group_name_H-M   'P 1'
_cell_length_a   9.38412189
_cell_length_b   5.10646212
_cell_length_c   5.67868462
_cell_angle_alpha   90.00138449
_cell_angle_beta   90.13272052
_cell_angle_gamma   89.99981158
_symmetry_Int_Tables_number   1
_chemical_formula_structural   TaFeO4
_chemical_formula_sum   'Ta4 Fe4 O16'
_cell_volume   272.11992314
_cell_formula_units_Z   4
loop_
 _symmetry_equiv_pos_site_id
 _symmetry_equiv_pos_as_xyz
  1  'x, y, z'
loop_
 _atom_site_type_symbol
 _atom_site_label
 _atom_site_symmetry_multiplicity
 _atom_site_fract_x
 _atom_site_fract_y
 _atom_site_fract_z
 _atom_site_occupancy
  Ta  Ta0  1  0.001926  0.737909  0.841286  1
  Ta  Ta1  1  0.248949  0.734437  0.340086  1
  Ta  Ta2  1  0.501016  0.234467  0.159837  1
  Ta  Ta3  1  0.748152  0.238022  0.658759  1
  Fe  Fe4  1  0.251932  0.249849  0.669917  1
  Fe  Fe5  1  0.498054  0.749790  0.830089  1
  Fe  Fe6  1  0.753357  0.752402  0.330587  1
  Fe  Fe7  1  0.996633  0.252475  0.169428  1
  O  O8  1  0.115171  0.915854  0.125118  1
  O  O9  1  0.114493  0.427330  0.886125  1
  O  O10  1  0.135714  0.915021  0.624022  1
  O  O11  1  0.135661  0.424716  0.386812  1
  O  O12  1  0.361676  0.587738  0.611946  1
  O  O13  1  0.365323  0.078639  0.379926  1
  O  O14  1  0.384700  0.578645  0.119996  1
  O  O15  1  0.388331  0.087708  0.888024  1
  O  O16  1  0.614277  0.415000  0.875915  1
  O  O17  1  0.614303  0.924720  0.113241  1
  O  O18  1  0.635570  0.927152  0.614042  1
  O  O19  1  0.634791  0.415809  0.374936  1
  O  O20  1  0.861551  0.092278  0.389189  1
  O  O21  1  0.864242  0.583837  0.620270  1
  O  O22  1  0.885819  0.083902  0.879683  1
  O  O23  1  0.888360  0.592298  0.110767  1
