# generated using pymatgen
data_TaFeO4
_symmetry_space_group_name_H-M   'P 1'
_cell_length_a   4.56748643
_cell_length_b   11.84197804
_cell_length_c   4.95198357
_cell_angle_alpha   90.00000000
_cell_angle_beta   90.00000000
_cell_angle_gamma   90.00000000
_symmetry_Int_Tables_number   1
_chemical_formula_structural   TaFeO4
_chemical_formula_sum   'Ta4 Fe4 O16'
_cell_volume   267.84325379
_cell_formula_units_Z   4
loop_
 _symmetry_equiv_pos_site_id
 _symmetry_equiv_pos_as_xyz
  1  'x, y, z'
loop_
 _atom_site_type_symbol
 _atom_site_label
 _atom_site_symmetry_multiplicity
 _atom_site_fract_x
 _atom_site_fract_y
 _atom_site_fract_z
 _atom_site_occupancy
  Ta  Ta0  1  0.000000  0.172476  0.250000  1
  Ta  Ta1  1  0.000000  0.827524  0.750000  1
  Ta  Ta2  1  0.500000  0.672476  0.250000  1
  Ta  Ta3  1  0.500000  0.327524  0.750000  1
  Fe  Fe4  1  0.000000  0.433471  0.250000  1
  Fe  Fe5  1  0.000000  0.566529  0.750000  1
  Fe  Fe6  1  0.500000  0.066529  0.750000  1
  Fe  Fe7  1  0.500000  0.933471  0.250000  1
  O  O8  1  0.230201  0.307602  0.072489  1
  O  O9  1  0.230201  0.692398  0.572489  1
  O  O10  1  0.245700  0.437935  0.585254  1
  O  O11  1  0.245700  0.562065  0.085254  1
  O  O12  1  0.254300  0.062065  0.085254  1
  O  O13  1  0.254300  0.937935  0.585254  1
  O  O14  1  0.269799  0.192398  0.572489  1
  O  O15  1  0.269799  0.807602  0.072489  1
  O  O16  1  0.730201  0.192398  0.927511  1
  O  O17  1  0.730201  0.807602  0.427511  1
  O  O18  1  0.745700  0.062065  0.414746  1
  O  O19  1  0.745700  0.937935  0.914746  1
  O  O20  1  0.754300  0.562065  0.414746  1
  O  O21  1  0.754300  0.437935  0.914746  1
  O  O22  1  0.769799  0.307602  0.427511  1
  O  O23  1  0.769799  0.692398  0.927511  1
