# generated using pymatgen
data_Ta2TiO6
_symmetry_space_group_name_H-M   'P 1'
_cell_length_a   7.47159987
_cell_length_b   5.71217220
_cell_length_c   5.71217220
_cell_angle_alpha   73.65318187
_cell_angle_beta   70.73226430
_cell_angle_gamma   70.73226430
_symmetry_Int_Tables_number   1
_chemical_formula_structural   Ta2TiO6
_chemical_formula_sum   'Ta4 Ti2 O12'
_cell_volume   213.13196316
_cell_formula_units_Z   2
loop_
 _symmetry_equiv_pos_site_id
 _symmetry_equiv_pos_as_xyz
  1  'x, y, z'
loop_
 _atom_site_type_symbol
 _atom_site_label
 _atom_site_symmetry_multiplicity
 _atom_site_fract_x
 _atom_site_fract_y
 _atom_site_fract_z
 _atom_site_occupancy
  Ta  Ta0  1  0.838124  0.662138  0.662138  1
  Ta  Ta1  1  0.339859  0.654751  0.654751  1
  Ta  Ta2  1  0.495210  0.004529  0.004529  1
  Ta  Ta3  1  0.993474  0.011915  0.011915  1
  Ti  Ti4  1  0.666667  0.333333  0.333333  1
  Ti  Ti5  1  0.166667  0.333333  0.333333  1
  O  O6  1  0.338198  0.365474  0.958103  1
  O  O7  1  0.666667  0.026899  0.639768  1
  O  O8  1  0.971769  0.231594  0.231594  1
  O  O9  1  0.633112  0.572170  0.572170  1
  O  O10  1  0.295889  0.898992  0.898992  1
  O  O11  1  0.700221  0.094497  0.094497  1
  O  O12  1  0.361565  0.435073  0.435073  1
  O  O13  1  0.037445  0.767675  0.767675  1
  O  O14  1  0.995136  0.301192  0.708564  1
  O  O15  1  0.666667  0.639768  0.026899  1
  O  O16  1  0.338198  0.958103  0.365474  1
  O  O17  1  0.995136  0.708564  0.301192  1
