# generated using pymatgen
data_Ta2W2O11
_symmetry_space_group_name_H-M   'P 1'
_cell_length_a   7.34349109
_cell_length_b   7.34349047
_cell_length_c   14.64723291
_cell_angle_alpha   64.89081710
_cell_angle_beta   64.89082009
_cell_angle_gamma   59.72780724
_symmetry_Int_Tables_number   1
_chemical_formula_structural   Ta2W2O11
_chemical_formula_sum   'Ta4 W4 O22'
_cell_volume   594.92429430
_cell_formula_units_Z   2
loop_
 _symmetry_equiv_pos_site_id
 _symmetry_equiv_pos_as_xyz
  1  'x, y, z'
loop_
 _atom_site_type_symbol
 _atom_site_label
 _atom_site_symmetry_multiplicity
 _atom_site_fract_x
 _atom_site_fract_y
 _atom_site_fract_z
 _atom_site_occupancy
  Ta  Ta0  1  0.986176  0.452596  0.540435  1
  Ta  Ta1  1  0.992659  0.079670  0.228418  1
  Ta  Ta2  1  0.547404  0.013824  0.459565  1
  Ta  Ta3  1  0.920330  0.007341  0.771582  1
  W  W4  1  0.006744  0.993256  0.000000  1
  W  W5  1  0.003831  0.510766  0.987071  1
  W  W6  1  0.489234  0.996169  0.012929  1
  W  W7  1  0.019557  0.980443  0.500000  1
  O  O8  1  0.066663  0.693422  0.024193  1
  O  O9  1  0.065238  0.030987  0.349639  1
  O  O10  1  0.695261  0.060769  0.028540  1
  O  O11  1  0.071922  0.681496  0.528578  1
  O  O12  1  0.316713  0.964438  0.151107  1
  O  O13  1  0.298493  0.280110  0.491011  1
  O  O14  1  0.052478  0.031737  0.854404  1
  O  O15  1  0.698246  0.085235  0.318754  1
  O  O16  1  0.694172  0.700296  0.023847  1
  O  O17  1  0.940631  0.359941  0.146031  1
  O  O18  1  0.318504  0.928078  0.471422  1
  O  O19  1  0.713181  0.058302  0.516323  1
  O  O20  1  0.035562  0.683287  0.848893  1
  O  O21  1  0.299704  0.305828  0.976153  1
  O  O22  1  0.719890  0.701507  0.508989  1
  O  O23  1  0.968263  0.947522  0.145596  1
  O  O24  1  0.640059  0.059369  0.853969  1
  O  O25  1  0.941698  0.286819  0.483677  1
  O  O26  1  0.914765  0.301754  0.681246  1
  O  O27  1  0.306578  0.933337  0.975807  1
  O  O28  1  0.969013  0.934762  0.650361  1
  O  O29  1  0.939231  0.304739  0.971460  1
