# generated using pymatgen
data_Co7Re17O48
_symmetry_space_group_name_H-M   'P 1'
_cell_length_a   5.76899387
_cell_length_b   7.32180761
_cell_length_c   22.26412342
_cell_angle_alpha   81.40673335
_cell_angle_beta   67.11457318
_cell_angle_gamma   66.94666668
_symmetry_Int_Tables_number   1
_chemical_formula_structural   Co7Re17O48
_chemical_formula_sum   'Co7 Re17 O48'
_cell_volume   797.20399532
_cell_formula_units_Z   1
loop_
 _symmetry_equiv_pos_site_id
 _symmetry_equiv_pos_as_xyz
  1  'x, y, z'
loop_
 _atom_site_type_symbol
 _atom_site_label
 _atom_site_symmetry_multiplicity
 _atom_site_fract_x
 _atom_site_fract_y
 _atom_site_fract_z
 _atom_site_occupancy
  Co  Co0  1  0.511378  0.998784  0.002698  1
  Co  Co1  1  0.010772  0.985307  0.159736  1
  Co  Co2  1  0.001177  0.494649  0.666880  1
  Co  Co3  1  0.014816  0.992336  0.492572  1
  Co  Co4  1  0.477247  0.509931  0.339585  1
  Co  Co5  1  0.008012  0.494904  0.999706  1
  Co  Co6  1  0.492649  0.510912  0.666621  1
  Re  Re7  1  0.996830  0.000458  0.000361  1
  Re  Re8  1  0.010531  0.492357  0.328485  1
  Re  Re9  1  0.501007  0.003026  0.166570  1
  Re  Re10  1  0.501139  0.503003  0.999463  1
  Re  Re11  1  0.527557  0.998971  0.331333  1
  Re  Re12  1  0.531962  0.497222  0.166208  1
  Re  Re13  1  0.484663  0.009746  0.503704  1
  Re  Re14  1  0.522375  0.001766  0.668004  1
  Re  Re15  1  0.518396  0.500337  0.500294  1
  Re  Re16  1  0.972010  0.493527  0.166680  1
  Re  Re17  1  0.974515  0.007501  0.834805  1
  Re  Re18  1  0.971789  0.002527  0.331652  1
  Re  Re19  1  0.522937  0.994734  0.839180  1
  Re  Re20  1  0.471523  0.510549  0.833752  1
  Re  Re21  1  0.968638  0.502764  0.500741  1
  Re  Re22  1  0.971755  0.001993  0.666351  1
  Re  Re23  1  0.037002  0.491414  0.833830  1
  O  O24  1  0.156301  0.203665  0.165916  1
  O  O25  1  0.164085  0.710662  0.998918  1
  O  O26  1  0.384018  0.300985  0.998421  1
  O  O27  1  0.154218  0.499108  0.230005  1
  O  O28  1  0.145862  0.002707  0.062450  1
  O  O29  1  0.348786  0.996850  0.266541  1
  O  O30  1  0.345290  0.501922  0.101351  1
  O  O31  1  0.668524  0.999355  0.071296  1
  O  O32  1  0.384949  0.787802  0.499248  1
  O  O33  1  0.345323  0.285246  0.330173  1
  O  O34  1  0.108914  0.714615  0.332566  1
  O  O35  1  0.383186  0.785920  0.164598  1
  O  O36  1  0.634145  0.695105  0.000916  1
  O  O37  1  0.826851  0.780178  0.167296  1
  O  O38  1  0.839671  0.289635  0.999080  1
  O  O39  1  0.149573  0.507227  0.562172  1
  O  O40  1  0.162661  0.993179  0.391851  1
  O  O41  1  0.344211  0.002022  0.602654  1
  O  O42  1  0.331761  0.506835  0.439492  1
  O  O43  1  0.628002  0.013058  0.407467  1
  O  O44  1  0.635452  0.497172  0.241136  1
  O  O45  1  0.867279  0.488815  0.092818  1
  O  O46  1  0.168299  0.194808  0.834555  1
  O  O47  1  0.362928  0.277577  0.668000  1
  O  O48  1  0.124865  0.724787  0.668805  1
  O  O49  1  0.143994  0.213975  0.502556  1
  O  O50  1  0.856848  0.293655  0.330688  1
  O  O51  1  0.823331  0.791125  0.499507  1
  O  O52  1  0.625675  0.212705  0.167121  1
  O  O53  1  0.668487  0.709087  0.332620  1
  O  O54  1  0.144210  0.501532  0.906932  1
  O  O55  1  0.139945  0.006864  0.733661  1
  O  O56  1  0.353250  0.998410  0.932946  1
  O  O57  1  0.363105  0.502900  0.760131  1
  O  O58  1  0.643493  0.000541  0.742073  1
  O  O59  1  0.632175  0.504832  0.573189  1
  O  O60  1  0.865946  0.488537  0.424879  1
  O  O61  1  0.861425  0.997408  0.257768  1
  O  O62  1  0.340683  0.807760  0.833272  1
  O  O63  1  0.854488  0.279113  0.666770  1
  O  O64  1  0.873713  0.777808  0.835566  1
  O  O65  1  0.638539  0.208738  0.501565  1
  O  O66  1  0.638211  0.725901  0.669591  1
  O  O67  1  0.654358  0.504492  0.898889  1
  O  O68  1  0.843421  0.496918  0.775456  1
  O  O69  1  0.859062  0.995070  0.593914  1
  O  O70  1  0.626942  0.224476  0.836404  1
  O  O71  1  0.882865  0.000194  0.927566  1
