# generated using pymatgen
data_Ta2Zn4O9
_symmetry_space_group_name_H-M   'P 1'
_cell_length_a   5.24378989
_cell_length_b   5.24375807
_cell_length_c   14.34691950
_cell_angle_alpha   90.00060869
_cell_angle_beta   89.99970131
_cell_angle_gamma   120.00223246
_symmetry_Int_Tables_number   1
_chemical_formula_structural   Ta2Zn4O9
_chemical_formula_sum   'Ta4 Zn8 O18'
_cell_volume   341.63900745
_cell_formula_units_Z   2
loop_
 _symmetry_equiv_pos_site_id
 _symmetry_equiv_pos_as_xyz
  1  'x, y, z'
loop_
 _atom_site_type_symbol
 _atom_site_label
 _atom_site_symmetry_multiplicity
 _atom_site_fract_x
 _atom_site_fract_y
 _atom_site_fract_z
 _atom_site_occupancy
  Ta  Ta0  1  0.999974  -0.000004  0.141501  1
  Ta  Ta1  1  0.999980  0.999978  0.358503  1
  Ta  Ta2  1  0.000014  0.000022  0.641498  1
  Ta  Ta3  1  0.000000  0.000016  0.858502  1
  Zn  Zn4  1  0.333329  0.666673  0.018399  1
  Zn  Zn5  1  0.333346  0.666677  0.303206  1
  Zn  Zn6  1  0.333364  0.666679  0.518399  1
  Zn  Zn7  1  0.333343  0.666671  0.803206  1
  Zn  Zn8  1  0.666647  0.333328  0.196794  1
  Zn  Zn9  1  0.666632  0.333322  0.481600  1
  Zn  Zn10  1  0.666653  0.333324  0.696795  1
  Zn  Zn11  1  0.666623  0.333325  0.981600  1
  O  O12  1  0.999993  0.714816  0.750000  1
  O  O13  1  0.023634  0.683326  0.415740  1
  O  O14  1  0.316636  0.976354  0.915732  1
  O  O15  1  0.023617  0.340303  0.915741  1
  O  O16  1  0.000002  0.285190  0.249999  1
  O  O17  1  0.285206  0.285199  0.750001  1
  O  O18  1  0.316650  0.340292  0.415733  1
  O  O19  1  0.659705  0.976366  0.415731  1
  O  O20  1  0.340285  0.316654  0.084263  1
  O  O21  1  0.285189  -0.000000  0.250000  1
  O  O22  1  0.659698  0.683346  0.915735  1
  O  O23  1  0.340290  0.023632  0.584270  1
  O  O24  1  0.683343  0.659708  0.584267  1
  O  O25  1  0.714789  0.714803  0.250000  1
  O  O26  1  0.976356  0.659695  0.084262  1
  O  O27  1  0.683345  0.023640  0.084268  1
  O  O28  1  0.714802  -0.000004  0.750000  1
  O  O29  1  0.976357  0.316670  0.584260  1
