# generated using pymatgen
data_Ta2Co4O9
_symmetry_space_group_name_H-M   'P 1'
_cell_length_a   5.19834888
_cell_length_b   8.94225204
_cell_length_c   14.56418930
_cell_angle_alpha   90.00464018
_cell_angle_beta   89.99029518
_cell_angle_gamma   90.00643809
_symmetry_Int_Tables_number   1
_chemical_formula_structural   Ta2Co4O9
_chemical_formula_sum   'Ta8 Co16 O36'
_cell_volume   677.01553505
_cell_formula_units_Z   4
loop_
 _symmetry_equiv_pos_site_id
 _symmetry_equiv_pos_as_xyz
  1  'x, y, z'
loop_
 _atom_site_type_symbol
 _atom_site_label
 _atom_site_symmetry_multiplicity
 _atom_site_fract_x
 _atom_site_fract_y
 _atom_site_fract_z
 _atom_site_occupancy
  Ta  Ta0  1  0.000136  0.023538  0.144640  1
  Ta  Ta1  1  0.001507  0.976557  0.355152  1
  Ta  Ta2  1  0.499460  0.474528  0.645662  1
  Ta  Ta3  1  0.501067  0.525421  0.854481  1
  Ta  Ta4  1  0.501060  0.523605  0.355327  1
  Ta  Ta5  1  0.500290  0.476444  0.144745  1
  Ta  Ta6  1  0.000768  0.025140  0.645416  1
  Ta  Ta7  1  0.000680  0.974303  0.854076  1
  Co  Co8  1  0.000069  0.336223  0.308201  1
  Co  Co9  1  0.000036  0.664178  0.192194  1
  Co  Co10  1  0.003760  0.662704  0.498709  1
  Co  Co11  1  0.003617  0.337600  0.001750  1
  Co  Co12  1  0.497148  0.163101  0.501586  1
  Co  Co13  1  0.497089  0.837196  0.998255  1
  Co  Co14  1  0.498937  0.834848  0.688031  1
  Co  Co15  1  0.495961  0.165022  0.813232  1
  Co  Co16  1  0.499979  0.835769  0.192112  1
  Co  Co17  1  0.500185  0.163605  0.308552  1
  Co  Co18  1  0.503414  0.162458  0.001455  1
  Co  Co19  1  0.503962  0.838194  0.498135  1
  Co  Co20  1  0.996680  0.337249  0.501756  1
  Co  Co21  1  0.996981  0.663010  0.998329  1
  Co  Co22  1  0.996470  0.663273  0.686641  1
  Co  Co23  1  0.997167  0.334651  0.812844  1
  O  O24  1  0.146196  0.145830  0.749289  1
  O  O25  1  0.145114  0.853905  0.750422  1
  O  O26  1  0.163543  0.168272  0.073213  1
  O  O27  1  0.163548  0.831523  0.426691  1
  O  O28  1  0.171120  0.493038  0.413107  1
  O  O29  1  0.171300  0.506532  0.086550  1
  O  O30  1  0.173479  0.159475  0.404009  1
  O  O31  1  0.172966  0.839857  0.096189  1
  O  O32  1  0.215003  0.500479  0.750347  1
  O  O33  1  0.283347  0.999945  0.249879  1
  O  O34  1  0.330065  0.338288  0.902456  1
  O  O35  1  0.330463  0.661536  0.597490  1
  O  O36  1  0.326865  0.993392  0.586021  1
  O  O37  1  0.326546  0.006325  0.913707  1
  O  O38  1  0.335240  0.331778  0.573002  1
  O  O39  1  0.335536  0.668258  0.926913  1
  O  O40  1  0.355951  0.353479  0.250099  1
  O  O41  1  0.355209  0.645934  0.250093  1
  O  O42  1  0.646152  0.646173  0.750852  1
  O  O43  1  0.646402  0.354486  0.749115  1
  O  O44  1  0.663629  0.668598  0.426848  1
  O  O45  1  0.663477  0.331756  0.073189  1
  O  O46  1  0.670937  0.007343  0.412822  1
  O  O47  1  0.671162  0.993509  0.086515  1
  O  O48  1  0.673888  0.340664  0.404061  1
  O  O49  1  0.672985  0.660071  0.096222  1
  O  O50  1  0.713515  0.000537  0.749782  1
  O  O51  1  0.783454  0.500086  0.249921  1
  O  O52  1  0.829817  0.161528  0.902265  1
  O  O53  1  0.830488  0.838535  0.597446  1
  O  O54  1  0.827073  0.493350  0.913795  1
  O  O55  1  0.827492  0.506717  0.586546  1
  O  O56  1  0.835431  0.168182  0.573113  1
  O  O57  1  0.835290  0.831687  0.926757  1
  O  O58  1  0.855815  0.146283  0.249976  1
  O  O59  1  0.855079  0.854029  0.250015  1
