# generated using pymatgen
data_Ta8Cr3O24
_symmetry_space_group_name_H-M   'P 1'
_cell_length_a   6.77372989
_cell_length_b   6.74102213
_cell_length_c   10.43981517
_cell_angle_alpha   108.81096086
_cell_angle_beta   108.89122324
_cell_angle_gamma   90.08729059
_symmetry_Int_Tables_number   1
_chemical_formula_structural   Ta8Cr3O24
_chemical_formula_sum   'Ta8 Cr3 O24'
_cell_volume   423.93713869
_cell_formula_units_Z   1
loop_
 _symmetry_equiv_pos_site_id
 _symmetry_equiv_pos_as_xyz
  1  'x, y, z'
loop_
 _atom_site_type_symbol
 _atom_site_label
 _atom_site_symmetry_multiplicity
 _atom_site_fract_x
 _atom_site_fract_y
 _atom_site_fract_z
 _atom_site_occupancy
  Ta  Ta0  1  0.176164  0.176034  0.352111  1
  Ta  Ta1  1  0.347254  0.347488  0.694979  1
  Ta  Ta2  1  0.999557  0.999454  0.999060  1
  Ta  Ta3  1  0.415723  0.915710  0.831406  1
  Ta  Ta4  1  0.585259  0.085157  0.170454  1
  Ta  Ta5  1  0.077331  0.577353  0.154665  1
  Ta  Ta6  1  0.665448  0.665483  0.330877  1
  Ta  Ta7  1  0.827903  0.828000  0.655762  1
  Cr  Cr8  1  0.247306  0.747248  0.494536  1
  Cr  Cr9  1  0.757237  0.257223  0.514391  1
  Cr  Cr10  1  0.499921  0.499864  0.999866  1
  O  O11  1  0.011951  0.724918  0.021344  1
  O  O12  1  0.501083  0.190631  0.000349  1
  O  O13  1  0.336594  0.028937  0.671260  1
  O  O14  1  0.227000  0.416377  0.835341  1
  O  O15  1  0.052222  0.247746  0.497344  1
  O  O16  1  0.445145  0.249548  0.497366  1
  O  O17  1  0.608010  0.418693  0.835141  1
  O  O18  1  0.116173  0.919711  0.837512  1
  O  O19  1  0.282703  0.084829  0.167849  1
  O  O20  1  0.163016  0.462988  0.327854  1
  O  O21  1  0.820679  0.101982  0.642931  1
  O  O22  1  0.334729  0.642303  0.671258  1
  O  O23  1  0.164747  0.864791  0.327850  1
  O  O24  1  0.663386  0.360878  0.325122  1
  O  O25  1  0.822646  0.541123  0.642792  1
  O  O26  1  0.721436  0.917813  0.837539  1
  O  O27  1  0.885016  0.082754  0.167815  1
  O  O28  1  0.384887  0.584107  0.169977  1
  O  O29  1  0.548435  0.743249  0.488330  1
  O  O30  1  0.939866  0.745291  0.488197  1
  O  O31  1  0.785058  0.586019  0.169927  1
  O  O32  1  0.661486  0.964413  0.325231  1
  O  O33  1  0.499193  0.809628  0.000279  1
  O  O34  1  0.009628  0.296314  0.021477  1
