# generated using pymatgen
data_Ta4Cu2O11
_symmetry_space_group_name_H-M   'P 1'
_cell_length_a   13.08021010
_cell_length_b   13.10808553
_cell_length_c   13.10808539
_cell_angle_alpha   27.81840253
_cell_angle_beta   27.69179938
_cell_angle_gamma   27.69179683
_symmetry_Int_Tables_number   1
_chemical_formula_structural   Ta4Cu2O11
_chemical_formula_sum   'Ta8 Cu4 O22'
_cell_volume   429.73308808
_cell_formula_units_Z   2
loop_
 _symmetry_equiv_pos_site_id
 _symmetry_equiv_pos_as_xyz
  1  'x, y, z'
loop_
 _atom_site_type_symbol
 _atom_site_label
 _atom_site_symmetry_multiplicity
 _atom_site_fract_x
 _atom_site_fract_y
 _atom_site_fract_z
 _atom_site_occupancy
  Ta  Ta0  1  0.000000  0.000000  0.000000  1
  Ta  Ta1  1  0.111818  0.753683  0.381723  1
  Ta  Ta2  1  0.388182  0.118277  0.746317  1
  Ta  Ta3  1  0.750000  0.395168  0.104832  1
  Ta  Ta4  1  0.500000  0.500000  0.500000  1
  Ta  Ta5  1  0.250000  0.604832  0.895168  1
  Ta  Ta6  1  0.611818  0.881723  0.253683  1
  Ta  Ta7  1  0.888182  0.246317  0.618277  1
  Cu  Cu8  1  0.500000  0.000000  0.500000  1
  Cu  Cu9  1  0.500000  0.500000  0.000000  1
  Cu  Cu10  1  0.000000  0.000000  0.500000  1
  Cu  Cu11  1  0.000000  0.500000  0.000000  1
  O  O12  1  0.090375  0.098516  0.088240  1
  O  O13  1  0.001652  0.494816  0.255094  1
  O  O14  1  0.250000  0.001977  0.498023  1
  O  O15  1  0.066175  0.773617  0.258395  1
  O  O16  1  0.275920  0.068489  0.746648  1
  O  O17  1  0.753865  0.283549  0.055011  1
  O  O18  1  0.998348  0.505184  0.744906  1
  O  O19  1  0.409625  0.411760  0.401484  1
  O  O20  1  0.501652  0.755094  0.994816  1
  O  O21  1  0.750000  0.998023  0.501977  1
  O  O22  1  0.224080  0.753352  0.431511  1
  O  O23  1  0.433825  0.241605  0.726383  1
  O  O24  1  0.746135  0.444989  0.216451  1
  O  O25  1  0.253865  0.555011  0.783549  1
  O  O26  1  0.566175  0.758395  0.273616  1
  O  O27  1  0.775920  0.246648  0.568489  1
  O  O28  1  0.498348  0.244906  0.005184  1
  O  O29  1  0.590375  0.588240  0.598516  1
  O  O30  1  0.246135  0.716451  0.944989  1
  O  O31  1  0.724080  0.931511  0.253352  1
  O  O32  1  0.933825  0.226383  0.741605  1
  O  O33  1  0.909625  0.901484  0.911760  1
