# generated using pymatgen
data_Ta2CuO6
_symmetry_space_group_name_H-M   'P 1'
_cell_length_a   7.54650250
_cell_length_b   7.60782156
_cell_length_c   7.56585321
_cell_angle_alpha   90.00000929
_cell_angle_beta   90.00000205
_cell_angle_gamma   90.00001324
_symmetry_Int_Tables_number   1
_chemical_formula_structural   Ta2CuO6
_chemical_formula_sum   'Ta8 Cu4 O24'
_cell_volume   434.37412692
_cell_formula_units_Z   4
loop_
 _symmetry_equiv_pos_site_id
 _symmetry_equiv_pos_as_xyz
  1  'x, y, z'
loop_
 _atom_site_type_symbol
 _atom_site_label
 _atom_site_symmetry_multiplicity
 _atom_site_fract_x
 _atom_site_fract_y
 _atom_site_fract_z
 _atom_site_occupancy
  Ta  Ta0  1  0.252028  0.750406  0.744098  1
  Ta  Ta1  1  0.252028  0.249594  0.744099  1
  Ta  Ta2  1  0.252028  0.750406  0.255902  1
  Ta  Ta3  1  0.252028  0.249594  0.255902  1
  Ta  Ta4  1  0.747972  0.750406  0.744098  1
  Ta  Ta5  1  0.747972  0.249594  0.744098  1
  Ta  Ta6  1  0.747972  0.750405  0.255902  1
  Ta  Ta7  1  0.747972  0.249594  0.255902  1
  Cu  Cu8  1  0.000000  0.500000  1.000000  1
  Cu  Cu9  1  0.000000  0.000001  0.499999  1
  Cu  Cu10  1  0.500000  1.000000  0.000000  1
  Cu  Cu11  1  0.500000  0.500001  1.000000  1
  O  O12  1  1.000000  0.311916  0.180225  1
  O  O13  1  0.000000  0.688084  0.180225  1
  O  O14  1  0.180060  1.000000  0.692146  1
  O  O15  1  0.180060  0.000000  0.307855  1
  O  O16  1  0.202402  0.306478  0.500000  1
  O  O17  1  0.202402  0.693522  0.500000  1
  O  O18  1  0.308668  0.179353  0.000000  1
  O  O19  1  0.308667  0.820647  1.000000  1
  O  O20  1  0.314865  0.500000  0.187732  1
  O  O21  1  0.314865  0.500000  0.812268  1
  O  O22  1  0.500000  0.203935  0.302100  1
  O  O23  1  0.500000  0.796065  0.697900  1
  O  O24  1  0.500000  0.203935  0.697899  1
  O  O25  1  0.500000  0.796064  0.302100  1
  O  O26  1  0.685135  0.500000  0.812268  1
  O  O27  1  0.685135  0.500000  0.187732  1
  O  O28  1  0.691333  0.179353  0.000000  1
  O  O29  1  0.691333  0.820647  0.000000  1
  O  O30  1  0.797598  0.306478  0.500000  1
  O  O31  1  0.797599  0.693522  0.500000  1
  O  O32  1  0.819939  0.000000  0.692146  1
  O  O33  1  0.819939  0.000000  0.307854  1
  O  O34  1  -0.000000  0.311916  0.819775  1
  O  O35  1  0.000000  0.688084  0.819775  1
