# generated using pymatgen
data_Ta2Mn3O8
_symmetry_space_group_name_H-M   'P 1'
_cell_length_a   9.47934252
_cell_length_b   9.47934252
_cell_length_c   9.47934252
_cell_angle_alpha   105.98038792
_cell_angle_beta   105.98038791
_cell_angle_gamma   116.70412992
_symmetry_Int_Tables_number   1
_chemical_formula_structural   Ta2Mn3O8
_chemical_formula_sum   'Ta8 Mn12 O32'
_cell_volume   647.78007276
_cell_formula_units_Z   4
loop_
 _symmetry_equiv_pos_site_id
 _symmetry_equiv_pos_as_xyz
  1  'x, y, z'
loop_
 _atom_site_type_symbol
 _atom_site_label
 _atom_site_symmetry_multiplicity
 _atom_site_fract_x
 _atom_site_fract_y
 _atom_site_fract_z
 _atom_site_occupancy
  O  O0  1  0.213251  0.079939  0.784157  1
  O  O1  1  0.579939  0.295781  0.866688  1
  O  O2  1  0.929093  0.713251  0.633312  1
  O  O3  1  0.795781  0.429093  0.715843  1
  O  O4  1  0.786749  0.920061  0.215843  1
  O  O5  1  0.420061  0.704219  0.133312  1
  O  O6  1  0.070907  0.286749  0.366688  1
  O  O7  1  0.204219  0.570907  0.284157  1
  O  O8  1  0.816983  0.200875  0.008775  1
  O  O9  1  0.700875  0.192100  0.383892  1
  O  O10  1  0.308208  0.316983  0.116108  1
  O  O11  1  0.692100  0.808208  0.491225  1
  O  O12  1  0.183017  0.799125  0.991225  1
  O  O13  1  0.299125  0.807900  0.616108  1
  O  O14  1  0.691792  0.683017  0.883892  1
  O  O15  1  0.307900  0.191792  0.508775  1
  O  O16  1  0.378542  0.443410  0.858975  1
  O  O17  1  0.943410  0.584435  0.064868  1
  O  O18  1  0.019567  0.878542  0.435132  1
  O  O19  1  0.084435  0.519567  0.641025  1
  O  O20  1  0.415240  0.588256  0.568703  1
  O  O21  1  0.088257  0.019554  0.173016  1
  O  O22  1  0.346538  0.915240  0.326984  1
  O  O23  1  0.519554  0.846538  0.931297  1
  O  O24  1  0.584760  0.411743  0.431297  1
  O  O25  1  0.911744  0.980446  0.826984  1
  O  O26  1  0.653462  0.084760  0.673016  1
  O  O27  1  0.480446  0.153462  0.068703  1
  O  O28  1  0.915565  0.480433  0.358975  1
  O  O29  1  0.980433  0.121458  0.564868  1
  O  O30  1  0.056590  0.415565  0.935132  1
  O  O31  1  0.621458  0.556590  0.141025  1
  Mn  Mn32  1  0.125000  0.375000  0.750000  1
  Mn  Mn33  1  0.875000  0.625000  0.250000  1
  Mn  Mn34  1  0.625000  0.875000  0.750000  1
  Mn  Mn35  1  0.375000  0.125000  0.250000  1
  Mn  Mn36  1  0.950565  0.792274  0.932529  1
  Mn  Mn37  1  0.292274  0.859745  0.841709  1
  Mn  Mn38  1  0.518036  0.450565  0.658291  1
  Mn  Mn39  1  0.359745  0.018036  0.567471  1
  Mn  Mn40  1  0.049435  0.207726  0.067471  1
  Mn  Mn41  1  0.707726  0.140255  0.158291  1
  Mn  Mn42  1  0.481964  0.549435  0.341709  1
  Mn  Mn43  1  0.640255  0.981964  0.432529  1
  Ta  Ta44  1  0.424545  0.294390  0.977925  1
  Ta  Ta45  1  0.794390  0.316465  0.869845  1
  Ta  Ta46  1  0.946619  0.924545  0.630155  1
  Ta  Ta47  1  0.816465  0.446619  0.522075  1
  Ta  Ta48  1  0.575455  0.705610  0.022075  1
  Ta  Ta49  1  0.205610  0.683535  0.130155  1
  Ta  Ta50  1  0.053381  0.075455  0.369845  1
  Ta  Ta51  1  0.183535  0.553381  0.477925  1
