# generated using pymatgen
data_Co2HgO4
_symmetry_space_group_name_H-M   'P 1'
_cell_length_a   4.90378704
_cell_length_b   5.69076440
_cell_length_c   11.56496449
_cell_angle_alpha   89.97313487
_cell_angle_beta   89.99568674
_cell_angle_gamma   90.00039683
_symmetry_Int_Tables_number   1
_chemical_formula_structural   Co2HgO4
_chemical_formula_sum   'Co8 Hg4 O16'
_cell_volume   322.73529433
_cell_formula_units_Z   4
loop_
 _symmetry_equiv_pos_site_id
 _symmetry_equiv_pos_as_xyz
  1  'x, y, z'
loop_
 _atom_site_type_symbol
 _atom_site_label
 _atom_site_symmetry_multiplicity
 _atom_site_fract_x
 _atom_site_fract_y
 _atom_site_fract_z
 _atom_site_occupancy
  Co  Co0  1  0.003852  0.249993  0.005545  1
  Co  Co1  1  0.996157  0.750009  0.994449  1
  Co  Co2  1  0.003853  0.250005  0.494431  1
  Co  Co3  1  0.996152  0.749994  0.505575  1
  Co  Co4  1  0.500002  0.000003  0.999996  1
  Co  Co5  1  0.500002  0.000001  0.500005  1
  Co  Co6  1  0.500002  0.499999  0.999995  1
  Co  Co7  1  0.500001  0.499999  0.500004  1
  Hg  Hg8  1  0.067905  0.749986  0.250017  1
  Hg  Hg9  1  0.387427  0.749975  0.749991  1
  Hg  Hg10  1  0.612531  0.250022  0.250005  1
  Hg  Hg11  1  0.932077  0.250007  0.749985  1
  O  O12  1  0.167006  0.999345  0.911789  1
  O  O13  1  0.166984  0.999170  0.588190  1
  O  O14  1  0.166968  0.500663  0.588189  1
  O  O15  1  0.167031  0.500830  0.911788  1
  O  O16  1  0.347893  0.249921  0.086096  1
  O  O17  1  0.347889  0.250085  0.413909  1
  O  O18  1  0.321922  0.749944  0.083138  1
  O  O19  1  0.321900  0.750050  0.416878  1
  O  O20  1  0.678107  0.249949  0.583125  1
  O  O21  1  0.678093  0.250057  0.916863  1
  O  O22  1  0.652104  0.749915  0.586102  1
  O  O23  1  0.652095  0.750081  0.913889  1
  O  O24  1  0.833002  0.000675  0.088203  1
  O  O25  1  0.833024  0.000839  0.411819  1
  O  O26  1  0.832980  0.499154  0.088203  1
  O  O27  1  0.833041  0.499328  0.411820  1
