# generated using pymatgen
data_Ta2MnO6
_symmetry_space_group_name_H-M   'P 1'
_cell_length_a   4.79382678
_cell_length_b   5.20069692
_cell_length_c   17.41658900
_cell_angle_alpha   90.00000000
_cell_angle_beta   90.00200497
_cell_angle_gamma   90.00000000
_symmetry_Int_Tables_number   1
_chemical_formula_structural   Ta2MnO6
_chemical_formula_sum   'Ta8 Mn4 O24'
_cell_volume   434.21716286
_cell_formula_units_Z   4
loop_
 _symmetry_equiv_pos_site_id
 _symmetry_equiv_pos_as_xyz
  1  'x, y, z'
loop_
 _atom_site_type_symbol
 _atom_site_label
 _atom_site_symmetry_multiplicity
 _atom_site_fract_x
 _atom_site_fract_y
 _atom_site_fract_z
 _atom_site_occupancy
  Ta  Ta0  1  0.999623  0.247350  0.781404  1
  Ta  Ta1  1  0.999268  0.250245  0.446016  1
  Ta  Ta2  1  0.500377  0.747350  0.718596  1
  Ta  Ta3  1  0.500732  0.750245  0.053984  1
  Ta  Ta4  1  0.499268  0.249755  0.946016  1
  Ta  Ta5  1  0.499623  0.252650  0.281404  1
  Ta  Ta6  1  0.000732  0.749755  0.553984  1
  Ta  Ta7  1  0.000377  0.752650  0.218596  1
  Mn  Mn8  1  0.001083  0.251983  0.107207  1
  Mn  Mn9  1  0.498917  0.751983  0.392793  1
  Mn  Mn10  1  0.501083  0.248017  0.607207  1
  Mn  Mn11  1  0.998917  0.748017  0.892793  1
  O  O12  1  0.230586  0.110375  0.871606  1
  O  O13  1  0.214633  0.069197  0.534566  1
  O  O14  1  0.238072  0.074864  0.212653  1
  O  O15  1  0.262196  0.069055  0.713207  1
  O  O16  1  0.266050  0.112230  0.370929  1
  O  O17  1  0.286411  0.069503  0.034943  1
  O  O18  1  0.237804  0.569055  0.786793  1
  O  O19  1  0.213589  0.569503  0.465057  1
  O  O20  1  0.233950  0.612230  0.129071  1
  O  O21  1  0.285367  0.569197  0.965434  1
  O  O22  1  0.269414  0.610375  0.628394  1
  O  O23  1  0.261928  0.574864  0.287347  1
  O  O24  1  0.738072  0.425136  0.712653  1
  O  O25  1  0.730586  0.389625  0.371606  1
  O  O26  1  0.714633  0.430803  0.034566  1
  O  O27  1  0.766050  0.387770  0.870929  1
  O  O28  1  0.786411  0.430497  0.534943  1
  O  O29  1  0.762196  0.430945  0.213207  1
  O  O30  1  0.713589  0.930497  0.965057  1
  O  O31  1  0.733950  0.887770  0.629071  1
  O  O32  1  0.737804  0.930945  0.286793  1
  O  O33  1  0.761928  0.925136  0.787347  1
  O  O34  1  0.785367  0.930803  0.465434  1
  O  O35  1  0.769414  0.889625  0.128394  1
