# generated using pymatgen
data_Ta2MnO6
_symmetry_space_group_name_H-M   'P 1'
_cell_length_a   5.13878216
_cell_length_b   5.87441320
_cell_length_c   14.59484764
_cell_angle_alpha   90.00000000
_cell_angle_beta   90.00000000
_cell_angle_gamma   90.00000000
_symmetry_Int_Tables_number   1
_chemical_formula_structural   Ta2MnO6
_chemical_formula_sum   'Ta8 Mn4 O24'
_cell_volume   440.57947840
_cell_formula_units_Z   4
loop_
 _symmetry_equiv_pos_site_id
 _symmetry_equiv_pos_as_xyz
  1  'x, y, z'
loop_
 _atom_site_type_symbol
 _atom_site_label
 _atom_site_symmetry_multiplicity
 _atom_site_fract_x
 _atom_site_fract_y
 _atom_site_fract_z
 _atom_site_occupancy
  Ta  Ta0  1  0.239251  0.675114  0.837252  1
  Ta  Ta1  1  0.739251  0.824886  0.662748  1
  Ta  Ta2  1  0.260749  0.675114  0.162748  1
  Ta  Ta3  1  0.760749  0.824886  0.337252  1
  Ta  Ta4  1  0.760749  0.324886  0.162748  1
  Ta  Ta5  1  0.260749  0.175114  0.337252  1
  Ta  Ta6  1  0.739251  0.324886  0.837252  1
  Ta  Ta7  1  0.239251  0.175114  0.662748  1
  Mn  Mn8  1  0.750000  0.829062  0.000000  1
  Mn  Mn9  1  0.250000  0.670938  0.500000  1
  Mn  Mn10  1  0.250000  0.170938  0.000000  1
  Mn  Mn11  1  0.750000  0.329062  0.500000  1
  O  O12  1  0.563399  0.598904  0.899741  1
  O  O13  1  0.063399  0.901096  0.600259  1
  O  O14  1  0.936601  0.598904  0.100259  1
  O  O15  1  0.436601  0.901096  0.399741  1
  O  O16  1  0.436601  0.401096  0.100259  1
  O  O17  1  0.936601  0.098904  0.399741  1
  O  O18  1  0.063399  0.401096  0.899741  1
  O  O19  1  0.563399  0.098904  0.600259  1
  O  O20  1  0.099191  0.879630  0.917924  1
  O  O21  1  0.599191  0.620370  0.582076  1
  O  O22  1  0.400809  0.879630  0.082076  1
  O  O23  1  0.900809  0.620370  0.417924  1
  O  O24  1  0.900809  0.120370  0.082076  1
  O  O25  1  0.400809  0.379630  0.417924  1
  O  O26  1  0.599191  0.120370  0.917924  1
  O  O27  1  0.099191  0.379630  0.582076  1
  O  O28  1  0.414740  0.870374  0.744668  1
  O  O29  1  0.914740  0.629626  0.755332  1
  O  O30  1  0.085260  0.870374  0.255332  1
  O  O31  1  0.585260  0.629626  0.244668  1
  O  O32  1  0.585260  0.129626  0.255332  1
  O  O33  1  0.085260  0.370374  0.244668  1
  O  O34  1  0.914740  0.129626  0.744668  1
  O  O35  1  0.414740  0.370374  0.755332  1
