# generated using pymatgen
data_Ta2MnO6
_symmetry_space_group_name_H-M   'P 1'
_cell_length_a   10.85911648
_cell_length_b   5.81902287
_cell_length_c   7.14587101
_cell_angle_alpha   90.00000000
_cell_angle_beta   75.62342756
_cell_angle_gamma   90.00000000
_symmetry_Int_Tables_number   1
_chemical_formula_structural   Ta2MnO6
_chemical_formula_sum   'Ta8 Mn4 O24'
_cell_volume   437.40344424
_cell_formula_units_Z   4
loop_
 _symmetry_equiv_pos_site_id
 _symmetry_equiv_pos_as_xyz
  1  'x, y, z'
loop_
 _atom_site_type_symbol
 _atom_site_label
 _atom_site_symmetry_multiplicity
 _atom_site_fract_x
 _atom_site_fract_y
 _atom_site_fract_z
 _atom_site_occupancy
  Ta  Ta0  1  0.088679  0.662995  0.330424  1
  Ta  Ta1  1  0.244654  0.337005  0.002909  1
  Ta  Ta2  1  0.416667  0.850806  0.166667  1
  Ta  Ta3  1  0.416667  0.679666  0.666667  1
  Ta  Ta4  1  0.588679  0.337005  0.330424  1
  Ta  Ta5  1  0.744654  0.662995  0.002909  1
  Ta  Ta6  1  0.916667  0.149194  0.166667  1
  Ta  Ta7  1  0.916667  0.320334  0.666667  1
  Mn  Mn8  1  0.084760  0.823186  0.822110  1
  Mn  Mn9  1  0.248573  0.176814  0.511224  1
  Mn  Mn10  1  0.584760  0.176814  0.822110  1
  Mn  Mn11  1  0.748573  0.823186  0.511224  1
  O  O12  1  0.101014  0.133268  0.028325  1
  O  O13  1  0.118182  0.605810  0.047290  1
  O  O14  1  0.045123  0.602353  0.605089  1
  O  O15  1  0.215151  0.394190  0.286044  1
  O  O16  1  0.052297  0.121047  0.654519  1
  O  O17  1  0.232319  0.866732  0.305009  1
  O  O18  1  0.281037  0.878953  0.678815  1
  O  O19  1  0.451986  0.114138  0.332026  1
  O  O20  1  0.601014  0.866732  0.028325  1
  O  O21  1  0.288210  0.397647  0.728245  1
  O  O22  1  0.448024  0.629456  0.365680  1
  O  O23  1  0.618182  0.394190  0.047290  1
  O  O24  1  0.385310  0.629456  0.967654  1
  O  O25  1  0.545123  0.397647  0.605089  1
  O  O26  1  0.715151  0.605810  0.286044  1
  O  O27  1  0.381348  0.114138  0.001307  1
  O  O28  1  0.552297  0.878953  0.654519  1
  O  O29  1  0.732319  0.133268  0.305009  1
  O  O30  1  0.781037  0.121047  0.678815  1
  O  O31  1  0.951986  0.885863  0.332026  1
  O  O32  1  0.788210  0.602353  0.728245  1
  O  O33  1  0.948024  0.370544  0.365680  1
  O  O34  1  0.885310  0.370544  0.967654  1
  O  O35  1  0.881348  0.885863  0.001307  1
