# generated using pymatgen
data_Ta2Nb3O12
_symmetry_space_group_name_H-M   'P 1'
_cell_length_a   9.66938531
_cell_length_b   9.79054358
_cell_length_c   13.50027428
_cell_angle_alpha   90.00000000
_cell_angle_beta   90.28221908
_cell_angle_gamma   90.00000000
_symmetry_Int_Tables_number   1
_chemical_formula_structural   Ta2Nb3O12
_chemical_formula_sum   'Ta8 Nb12 O48'
_cell_volume   1278.03572808
_cell_formula_units_Z   4
loop_
 _symmetry_equiv_pos_site_id
 _symmetry_equiv_pos_as_xyz
  1  'x, y, z'
loop_
 _atom_site_type_symbol
 _atom_site_label
 _atom_site_symmetry_multiplicity
 _atom_site_fract_x
 _atom_site_fract_y
 _atom_site_fract_z
 _atom_site_occupancy
  Ta  Ta0  1  0.248610  0.971045  0.882156  1
  Ta  Ta1  1  0.246283  0.033534  0.381915  1
  Ta  Ta2  1  0.253717  0.533534  0.118085  1
  Ta  Ta3  1  0.251390  0.471045  0.617844  1
  Ta  Ta4  1  0.748610  0.528955  0.382156  1
  Ta  Ta5  1  0.746283  0.466466  0.881915  1
  Ta  Ta6  1  0.753717  0.966466  0.618085  1
  Ta  Ta7  1  0.751390  0.028955  0.117844  1
  Nb  Nb8  1  0.024756  0.749564  0.499836  1
  Nb  Nb9  1  0.105216  0.618587  0.856319  1
  Nb  Nb10  1  0.108852  0.881783  0.143621  1
  Nb  Nb11  1  0.391148  0.381783  0.356380  1
  Nb  Nb12  1  0.394784  0.118587  0.643681  1
  Nb  Nb13  1  0.475244  0.249564  0.000164  1
  Nb  Nb14  1  0.524756  0.750436  0.999836  1
  Nb  Nb15  1  0.605216  0.881413  0.356319  1
  Nb  Nb16  1  0.608852  0.618217  0.643621  1
  Nb  Nb17  1  0.891148  0.118217  0.856379  1
  Nb  Nb18  1  0.894784  0.381413  0.143681  1
  Nb  Nb19  1  0.975244  0.250436  0.500164  1
  O  O20  1  0.083053  0.089089  0.865892  1
  O  O21  1  0.088016  0.349814  0.588446  1
  O  O22  1  0.088612  0.164957  0.406288  1
  O  O23  1  0.086597  0.416828  0.135485  1
  O  O24  1  0.127862  0.882550  0.431740  1
  O  O25  1  0.139702  0.806772  0.838101  1
  O  O26  1  0.145422  0.695353  0.165280  1
  O  O27  1  0.147358  0.630135  0.563992  1
  O  O28  1  0.181414  0.991135  0.246771  1
  O  O29  1  0.184340  0.515047  0.752061  1
  O  O30  1  0.187938  0.570346  0.976855  1
  O  O31  1  0.187425  0.932041  0.023388  1
  O  O32  1  0.312575  0.432041  0.476612  1
  O  O33  1  0.312063  0.070346  0.523145  1
  O  O34  1  0.315660  0.015047  0.747939  1
  O  O35  1  0.318586  0.491135  0.253229  1
  O  O36  1  0.352642  0.130135  0.936008  1
  O  O37  1  0.354578  0.195353  0.334720  1
  O  O38  1  0.360298  0.306772  0.661899  1
  O  O39  1  0.372138  0.382550  0.068260  1
  O  O40  1  0.411984  0.849814  0.911554  1
  O  O41  1  0.413403  0.916828  0.364515  1
  O  O42  1  0.411388  0.664957  0.093712  1
  O  O43  1  0.416947  0.589089  0.634108  1
  O  O44  1  0.583053  0.410911  0.365892  1
  O  O45  1  0.588612  0.335043  0.906288  1
  O  O46  1  0.586597  0.083172  0.635485  1
  O  O47  1  0.588016  0.150186  0.088446  1
  O  O48  1  0.627862  0.617450  0.931740  1
  O  O49  1  0.639702  0.693228  0.338101  1
  O  O50  1  0.645422  0.804647  0.665280  1
  O  O51  1  0.647358  0.869865  0.063992  1
  O  O52  1  0.681414  0.508865  0.746771  1
  O  O53  1  0.684340  0.984953  0.252061  1
  O  O54  1  0.687937  0.929654  0.476855  1
  O  O55  1  0.687425  0.567959  0.523388  1
  O  O56  1  0.812575  0.067959  0.976612  1
  O  O57  1  0.812063  0.429654  0.023145  1
  O  O58  1  0.815660  0.484953  0.247939  1
  O  O59  1  0.818586  0.008865  0.753229  1
  O  O60  1  0.852642  0.369865  0.436008  1
  O  O61  1  0.854578  0.304647  0.834720  1
  O  O62  1  0.860298  0.193228  0.161899  1
  O  O63  1  0.872138  0.117450  0.568260  1
  O  O64  1  0.913403  0.583172  0.864515  1
  O  O65  1  0.911388  0.835043  0.593712  1
  O  O66  1  0.911984  0.650186  0.411554  1
  O  O67  1  0.916947  0.910911  0.134108  1
