# generated using pymatgen
data_TaNbO5
_symmetry_space_group_name_H-M   'P 1'
_cell_length_a   14.44523384
_cell_length_b   5.70446818
_cell_length_c   14.38985306
_cell_angle_alpha   90.00000000
_cell_angle_beta   120.18676788
_cell_angle_gamma   90.00000000
_symmetry_Int_Tables_number   1
_chemical_formula_structural   TaNbO5
_chemical_formula_sum   'Ta8 Nb8 O40'
_cell_volume   1024.95856291
_cell_formula_units_Z   8
loop_
 _symmetry_equiv_pos_site_id
 _symmetry_equiv_pos_as_xyz
  1  'x, y, z'
loop_
 _atom_site_type_symbol
 _atom_site_label
 _atom_site_symmetry_multiplicity
 _atom_site_fract_x
 _atom_site_fract_y
 _atom_site_fract_z
 _atom_site_occupancy
  Ta  Ta0  1  0.154265  0.733680  0.561726  1
  Ta  Ta1  1  0.345597  0.239250  0.906556  1
  Ta  Ta2  1  0.154265  0.766320  0.061726  1
  Ta  Ta3  1  0.345597  0.260750  0.406556  1
  Ta  Ta4  1  0.654403  0.739250  0.593444  1
  Ta  Ta5  1  0.845735  0.233680  0.938274  1
  Ta  Ta6  1  0.654403  0.760750  0.093444  1
  Ta  Ta7  1  0.845735  0.266320  0.438274  1
  Nb  Nb8  1  0.056997  0.258011  0.853380  1
  Nb  Nb9  1  0.056997  0.241989  0.353380  1
  Nb  Nb10  1  0.442872  0.747110  0.796574  1
  Nb  Nb11  1  0.557128  0.247110  0.703426  1
  Nb  Nb12  1  0.442872  0.752890  0.296574  1
  Nb  Nb13  1  0.557128  0.252890  0.203426  1
  Nb  Nb14  1  0.943003  0.758011  0.646620  1
  Nb  Nb15  1  0.943003  0.741989  0.146620  1
  O  O16  1  0.007501  0.971508  0.765905  1
  O  O17  1  0.112700  0.535258  0.958536  1
  O  O18  1  0.073155  0.756665  0.629538  1
  O  O19  1  0.198707  0.251020  0.861262  1
  O  O20  1  0.007501  0.528492  0.265905  1
  O  O21  1  0.112700  0.964742  0.458536  1
  O  O22  1  0.128607  0.447323  0.493402  1
  O  O23  1  0.379791  0.953034  0.871247  1
  O  O24  1  0.377018  0.470709  0.837223  1
  O  O25  1  0.300964  0.771912  0.662612  1
  O  O26  1  0.073155  0.743335  0.129538  1
  O  O27  1  0.198707  0.248980  0.361262  1
  O  O28  1  0.572437  0.716717  0.944537  1
  O  O29  1  0.499051  0.024194  0.762468  1
  O  O30  1  0.500949  0.524194  0.737532  1
  O  O31  1  0.128607  0.052677  0.993402  1
  O  O32  1  0.427563  0.216717  0.555463  1
  O  O33  1  0.379791  0.546966  0.371247  1
  O  O34  1  0.377018  0.029291  0.337223  1
  O  O35  1  0.300964  0.728088  0.162612  1
  O  O36  1  0.699036  0.271912  0.837388  1
  O  O37  1  0.622982  0.970709  0.662777  1
  O  O38  1  0.620209  0.453034  0.628753  1
  O  O39  1  0.572437  0.783283  0.444537  1
  O  O40  1  0.871393  0.947323  0.006598  1
  O  O41  1  0.499051  0.475806  0.262468  1
  O  O42  1  0.500949  0.975806  0.237532  1
  O  O43  1  0.427563  0.283283  0.055463  1
  O  O44  1  0.801293  0.751020  0.638738  1
  O  O45  1  0.926845  0.256665  0.870462  1
  O  O46  1  0.699036  0.228088  0.337388  1
  O  O47  1  0.622982  0.529291  0.162777  1
  O  O48  1  0.620209  0.046966  0.128753  1
  O  O49  1  0.871393  0.552677  0.506598  1
  O  O50  1  0.887300  0.035258  0.541464  1
  O  O51  1  0.992499  0.471508  0.734095  1
  O  O52  1  0.801293  0.748980  0.138738  1
  O  O53  1  0.926845  0.243335  0.370462  1
  O  O54  1  0.887300  0.464742  0.041464  1
  O  O55  1  0.992499  0.028492  0.234095  1
