# generated using pymatgen
data_Ta2Zn4O9
_symmetry_space_group_name_H-M   'P 1'
_cell_length_a   5.22271129
_cell_length_b   9.07437842
_cell_length_c   14.51210747
_cell_angle_alpha   90.00000000
_cell_angle_beta   90.00000000
_cell_angle_gamma   90.00000000
_symmetry_Int_Tables_number   1
_chemical_formula_structural   Ta2Zn4O9
_chemical_formula_sum   'Ta8 Zn16 O36'
_cell_volume   687.77025766
_cell_formula_units_Z   4
loop_
 _symmetry_equiv_pos_site_id
 _symmetry_equiv_pos_as_xyz
  1  'x, y, z'
loop_
 _atom_site_type_symbol
 _atom_site_label
 _atom_site_symmetry_multiplicity
 _atom_site_fract_x
 _atom_site_fract_y
 _atom_site_fract_z
 _atom_site_occupancy
  Ta  Ta0  1  0.003756  0.018031  0.143021  1
  Ta  Ta1  1  0.003756  0.981969  0.356979  1
  Ta  Ta2  1  0.496244  0.481969  0.643021  1
  Ta  Ta3  1  0.496244  0.518031  0.856979  1
  Ta  Ta4  1  0.503756  0.518031  0.356979  1
  Ta  Ta5  1  0.503756  0.481969  0.143021  1
  Ta  Ta6  1  0.996244  0.018031  0.643021  1
  Ta  Ta7  1  0.996244  0.981969  0.856979  1
  Zn  Zn8  1  0.002962  0.335926  0.301722  1
  Zn  Zn9  1  0.002962  0.664074  0.198278  1
  Zn  Zn10  1  0.008103  0.661745  0.496118  1
  Zn  Zn11  1  0.008103  0.338255  0.003882  1
  Zn  Zn12  1  0.491897  0.161745  0.503882  1
  Zn  Zn13  1  0.491897  0.838255  0.996118  1
  Zn  Zn14  1  0.497038  0.835926  0.698278  1
  Zn  Zn15  1  0.497038  0.164074  0.801722  1
  Zn  Zn16  1  0.502962  0.835926  0.198278  1
  Zn  Zn17  1  0.502962  0.164074  0.301722  1
  Zn  Zn18  1  0.508103  0.161745  0.003882  1
  Zn  Zn19  1  0.508103  0.838255  0.496118  1
  Zn  Zn20  1  0.991897  0.338255  0.503882  1
  Zn  Zn21  1  0.991897  0.661745  0.996118  1
  Zn  Zn22  1  0.997038  0.664074  0.698278  1
  Zn  Zn23  1  0.997038  0.335926  0.801722  1
  O  O24  1  0.137371  0.142890  0.750693  1
  O  O25  1  0.137371  0.857110  0.749307  1
  O  O26  1  0.162756  0.166492  0.074140  1
  O  O27  1  0.162756  0.833508  0.425860  1
  O  O28  1  0.176657  0.506353  0.085807  1
  O  O29  1  0.176657  0.493647  0.414193  1
  O  O30  1  0.180378  0.158717  0.404752  1
  O  O31  1  0.180378  0.841283  0.095248  1
  O  O32  1  0.212794  0.500000  0.750000  1
  O  O33  1  0.287206  0.000000  0.250000  1
  O  O34  1  0.319622  0.658717  0.595248  1
  O  O35  1  0.319622  0.341283  0.904752  1
  O  O36  1  0.323343  0.993647  0.585807  1
  O  O37  1  0.323343  0.006353  0.914193  1
  O  O38  1  0.337244  0.333508  0.574140  1
  O  O39  1  0.337244  0.666492  0.925860  1
  O  O40  1  0.362629  0.357110  0.250693  1
  O  O41  1  0.362629  0.642890  0.249307  1
  O  O42  1  0.637371  0.357110  0.750693  1
  O  O43  1  0.637371  0.642890  0.749307  1
  O  O44  1  0.662756  0.333508  0.074140  1
  O  O45  1  0.662756  0.666492  0.425860  1
  O  O46  1  0.676657  0.006353  0.414193  1
  O  O47  1  0.676657  0.993647  0.085807  1
  O  O48  1  0.680378  0.341283  0.404752  1
  O  O49  1  0.680378  0.658717  0.095248  1
  O  O50  1  0.712794  0.000000  0.750000  1
  O  O51  1  0.787206  0.500000  0.250000  1
  O  O52  1  0.819622  0.158717  0.904752  1
  O  O53  1  0.819622  0.841283  0.595248  1
  O  O54  1  0.823343  0.493647  0.914193  1
  O  O55  1  0.823343  0.506353  0.585807  1
  O  O56  1  0.837244  0.166492  0.574140  1
  O  O57  1  0.837244  0.833508  0.925860  1
  O  O58  1  0.862629  0.142890  0.250693  1
  O  O59  1  0.862629  0.857110  0.249307  1
