# generated using pymatgen
data_Ta9VO25
_symmetry_space_group_name_H-M   'P 1'
_cell_length_a   3.86145635
_cell_length_b   11.41886703
_cell_length_c   11.41886703
_cell_angle_alpha   88.36175802
_cell_angle_beta   80.26553429
_cell_angle_gamma   80.26553429
_symmetry_Int_Tables_number   1
_chemical_formula_structural   Ta9VO25
_chemical_formula_sum   'Ta9 V1 O25'
_cell_volume   489.10292346
_cell_formula_units_Z   1
loop_
 _symmetry_equiv_pos_site_id
 _symmetry_equiv_pos_as_xyz
  1  'x, y, z'
loop_
 _atom_site_type_symbol
 _atom_site_label
 _atom_site_symmetry_multiplicity
 _atom_site_fract_x
 _atom_site_fract_y
 _atom_site_fract_z
 _atom_site_occupancy
  O  O0  1  0.938756  0.630352  0.513023  1
  O  O1  1  0.548221  0.513023  0.369648  1
  O  O2  1  0.430893  0.486977  0.630352  1
  O  O3  1  0.082133  0.369648  0.486977  1
  O  O4  1  0.500000  0.000000  1.000000  1
  O  O5  1  0.250476  0.139851  0.364835  1
  O  O6  1  0.384690  0.364836  0.860149  1
  O  O7  1  0.609674  0.635164  0.139851  1
  O  O8  1  0.755161  0.860149  0.635164  1
  O  O9  1  0.830752  0.960727  0.391807  1
  O  O10  1  0.982746  0.734609  0.289661  1
  O  O11  1  0.727592  0.289662  0.265391  1
  O  O12  1  0.282645  0.710338  0.734609  1
  O  O13  1  0.007018  0.265391  0.710338  1
  O  O14  1  0.947866  0.167465  0.936557  1
  O  O15  1  0.115578  0.936557  0.832535  1
  O  O16  1  0.884669  0.063443  0.167465  1
  O  O17  1  0.777440  0.391807  0.039273  1
  O  O18  1  0.354295  0.807451  0.488879  1
  O  O19  1  0.156826  0.488879  0.192549  1
  O  O20  1  0.838254  0.511121  0.807450  1
  O  O21  1  0.650625  0.192549  0.511121  1
  O  O22  1  0.183286  0.039273  0.608193  1
  O  O23  1  0.208520  0.608193  0.960727  1
  O  O24  1  0.051887  0.832535  0.063443  1
  V  V25  1  0.250000  0.500000  0.500000  1
  Ta  Ta26  1  0.781849  0.117578  0.322560  1
  Ta  Ta27  1  0.877709  0.796493  0.441581  1
  Ta  Ta28  1  0.115785  0.203507  0.558418  1
  Ta  Ta29  1  0.680710  0.441582  0.203507  1
  Ta  Ta30  1  0.325799  0.558418  0.796493  1
  Ta  Ta31  1  0.895592  0.322559  0.882421  1
  Ta  Ta32  1  0.100571  0.677441  0.117579  1
  Ta  Ta33  1  0.221989  0.882422  0.677440  1
  Ta  Ta34  1  0.000000  0.000000  0.000000  1
