# generated using pymatgen
data_Tb10Ti6O27
_symmetry_space_group_name_H-M   'P 1'
_cell_length_a   7.46916925
_cell_length_b   7.30840275
_cell_length_c   14.58187262
_cell_angle_alpha   59.92071664
_cell_angle_beta   59.16612274
_cell_angle_gamma   60.70948812
_symmetry_Int_Tables_number   1
_chemical_formula_structural   Tb10Ti6O27
_chemical_formula_sum   'Tb10 Ti6 O27'
_cell_volume   561.77935178
_cell_formula_units_Z   1
loop_
 _symmetry_equiv_pos_site_id
 _symmetry_equiv_pos_as_xyz
  1  'x, y, z'
loop_
 _atom_site_type_symbol
 _atom_site_label
 _atom_site_symmetry_multiplicity
 _atom_site_fract_x
 _atom_site_fract_y
 _atom_site_fract_z
 _atom_site_occupancy
  Tb  Tb0  1  0.552678  0.996765  0.230803  1
  Tb  Tb1  1  0.552678  0.488952  0.230803  1
  Tb  Tb2  1  0.538678  0.983384  0.497278  1
  Tb  Tb3  1  0.462295  0.527898  0.490954  1
  Tb  Tb4  1  0.506509  0.989261  0.753386  1
  Tb  Tb5  1  0.506509  0.497458  0.753386  1
  Tb  Tb6  1  0.000002  0.482561  0.267437  1
  Tb  Tb7  1  0.534563  0.479891  0.002827  1
  Tb  Tb8  1  0.014020  0.967317  0.775673  1
  Tb  Tb9  1  0.991693  0.520958  0.733196  1
  Ti  Ti10  1  0.028826  0.996920  0.994459  1
  Ti  Ti11  1  0.028826  0.485335  0.994459  1
  Ti  Ti12  1  0.503308  0.991657  0.006689  1
  Ti  Ti13  1  0.996931  0.993532  0.258003  1
  Ti  Ti14  1  0.017702  0.000565  0.504032  1
  Ti  Ti15  1  0.017702  0.473670  0.504032  1
  O  O16  1  0.979629  0.080409  0.362221  1
  O  O17  1  0.035411  0.774264  0.958031  1
  O  O18  1  0.364889  0.377968  0.189588  1
  O  O19  1  0.661262  0.082636  0.037461  1
  O  O20  1  0.979629  0.715520  0.362221  1
  O  O21  1  0.323360  0.358327  0.443883  1
  O  O22  1  0.132551  0.156084  0.817742  1
  O  O23  1  0.309802  0.921955  0.173144  1
  O  O24  1  0.075634  0.672162  0.540021  1
  O  O25  1  0.661262  0.681181  0.037461  1
  O  O26  1  0.676327  0.115923  0.295912  1
  O  O27  1  0.938428  0.376756  0.159349  1
  O  O28  1  0.609979  0.158501  0.564910  1
  O  O29  1  0.628447  0.624566  0.311210  1
  O  O30  1  0.323360  0.930547  0.443883  1
  O  O31  1  0.132551  0.575879  0.817742  1
  O  O32  1  0.372470  0.875884  0.687881  1
  O  O33  1  0.321726  0.343956  0.976451  1
  O  O34  1  0.618390  0.097818  0.842988  1
  O  O35  1  0.609979  0.601701  0.564910  1
  O  O36  1  0.974669  0.310407  0.452259  1
  O  O37  1  0.938428  0.866118  0.159349  1
  O  O38  1  0.923250  0.337490  0.662689  1
  O  O39  1  0.640966  0.614767  0.814749  1
  O  O40  1  0.321726  0.881415  0.976451  1
  O  O41  1  0.923250  0.913881  0.662689  1
  O  O42  1  0.894704  0.302762  0.999887  1
