# generated using pymatgen
data_Tb3Fe5O12
_symmetry_space_group_name_H-M   'P 1'
_cell_length_a   10.88878543
_cell_length_b   10.88878490
_cell_length_c   10.88878562
_cell_angle_alpha   109.47597942
_cell_angle_beta   109.47597844
_cell_angle_gamma   109.47597801
_symmetry_Int_Tables_number   1
_chemical_formula_structural   Tb3Fe5O12
_chemical_formula_sum   'Tb12 Fe20 O48'
_cell_volume   993.66475658
_cell_formula_units_Z   4
loop_
 _symmetry_equiv_pos_site_id
 _symmetry_equiv_pos_as_xyz
  1  'x, y, z'
loop_
 _atom_site_type_symbol
 _atom_site_label
 _atom_site_symmetry_multiplicity
 _atom_site_fract_x
 _atom_site_fract_y
 _atom_site_fract_z
 _atom_site_occupancy
  Tb  Tb0  1  0.749488  0.624832  0.875652  1
  Tb  Tb1  1  0.875652  0.749488  0.624832  1
  Tb  Tb2  1  0.624832  0.875652  0.749488  1
  Tb  Tb3  1  0.250512  0.375168  0.124348  1
  Tb  Tb4  1  0.124348  0.250512  0.375168  1
  Tb  Tb5  1  0.375168  0.124348  0.250512  1
  Tb  Tb6  1  0.749363  0.124071  0.374339  1
  Tb  Tb7  1  0.374339  0.749363  0.124071  1
  Tb  Tb8  1  0.124071  0.374339  0.749363  1
  Tb  Tb9  1  0.250637  0.875929  0.625661  1
  Tb  Tb10  1  0.625661  0.250637  0.875929  1
  Tb  Tb11  1  0.875929  0.625661  0.250637  1
  Fe  Fe12  1  0.000000  0.000000  0.000000  1
  Fe  Fe13  1  0.500000  0.500000  0.500000  1
  Fe  Fe14  1  0.500000  0.000000  0.500000  1
  Fe  Fe15  1  0.500000  0.500000  0.000000  1
  Fe  Fe16  1  0.000000  0.500000  0.500000  1
  Fe  Fe17  1  0.000000  0.500000  0.000000  1
  Fe  Fe18  1  0.000000  0.000000  0.500000  1
  Fe  Fe19  1  0.500000  0.000000  0.000000  1
  Fe  Fe20  1  0.750360  0.374397  0.625888  1
  Fe  Fe21  1  0.625888  0.750360  0.374397  1
  Fe  Fe22  1  0.374397  0.625888  0.750360  1
  Fe  Fe23  1  0.249640  0.625603  0.374112  1
  Fe  Fe24  1  0.374112  0.249640  0.625603  1
  Fe  Fe25  1  0.625603  0.374112  0.249640  1
  Fe  Fe26  1  0.249469  0.123873  0.875580  1
  Fe  Fe27  1  0.875580  0.249469  0.123873  1
  Fe  Fe28  1  0.123873  0.875580  0.249469  1
  Fe  Fe29  1  0.750531  0.876127  0.124420  1
  Fe  Fe30  1  0.124420  0.750531  0.876127  1
  Fe  Fe31  1  0.876127  0.124420  0.750531  1
  O  O32  1  0.970567  0.793925  0.876399  1
  O  O33  1  0.876399  0.970567  0.793925  1
  O  O34  1  0.793925  0.876399  0.970567  1
  O  O35  1  0.029433  0.206075  0.123601  1
  O  O36  1  0.123601  0.029433  0.206075  1
  O  O37  1  0.206075  0.123601  0.029433  1
  O  O38  1  0.791253  0.416280  0.823389  1
  O  O39  1  0.823389  0.791253  0.416280  1
  O  O40  1  0.416280  0.823389  0.791253  1
  O  O41  1  0.208747  0.583720  0.176611  1
  O  O42  1  0.176611  0.208747  0.583720  1
  O  O43  1  0.583720  0.176611  0.208747  1
  O  O44  1  0.083430  0.876881  0.406407  1
  O  O45  1  0.406407  0.083430  0.876881  1
  O  O46  1  0.876881  0.406407  0.083430  1
  O  O47  1  0.916570  0.123119  0.593593  1
  O  O48  1  0.593593  0.916570  0.123119  1
  O  O49  1  0.123119  0.593593  0.916570  1
  O  O50  1  0.676543  0.093294  0.967829  1
  O  O51  1  0.967829  0.676543  0.093294  1
  O  O52  1  0.093294  0.967829  0.676543  1
  O  O53  1  0.323457  0.906706  0.032171  1
  O  O54  1  0.032171  0.323457  0.906706  1
  O  O55  1  0.906706  0.032171  0.323457  1
  O  O56  1  0.530666  0.626347  0.708231  1
  O  O57  1  0.708231  0.530666  0.626347  1
  O  O58  1  0.626347  0.708231  0.530666  1
  O  O59  1  0.469334  0.373653  0.291769  1
  O  O60  1  0.291769  0.469334  0.373653  1
  O  O61  1  0.373653  0.291769  0.469334  1
  O  O62  1  0.707205  0.677781  0.083219  1
  O  O63  1  0.083219  0.707205  0.677781  1
  O  O64  1  0.677781  0.083219  0.707205  1
  O  O65  1  0.292795  0.322219  0.916781  1
  O  O66  1  0.916781  0.292795  0.322219  1
  O  O67  1  0.322219  0.916781  0.292795  1
  O  O68  1  0.417167  0.094338  0.626200  1
  O  O69  1  0.626200  0.417167  0.094338  1
  O  O70  1  0.094338  0.626200  0.417167  1
  O  O71  1  0.582833  0.905662  0.373800  1
  O  O72  1  0.373800  0.582833  0.905662  1
  O  O73  1  0.905662  0.373800  0.582833  1
  O  O74  1  0.822976  0.531065  0.406590  1
  O  O75  1  0.406590  0.822976  0.531065  1
  O  O76  1  0.531065  0.406590  0.822976  1
  O  O77  1  0.177024  0.468935  0.593410  1
  O  O78  1  0.593410  0.177024  0.468935  1
  O  O79  1  0.468935  0.593410  0.177024  1
