# generated using pymatgen
data_TbNi
_symmetry_space_group_name_H-M   'P 1'
_cell_length_a   4.19326329
_cell_length_b   5.43930930
_cell_length_c   21.25984597
_cell_angle_alpha   96.81492783
_cell_angle_beta   90.00000000
_cell_angle_gamma   90.00000000
_symmetry_Int_Tables_number   1
_chemical_formula_structural   TbNi
_chemical_formula_sum   'Tb12 Ni12'
_cell_volume   481.47823098
_cell_formula_units_Z   12
loop_
 _symmetry_equiv_pos_site_id
 _symmetry_equiv_pos_as_xyz
  1  'x, y, z'
loop_
 _atom_site_type_symbol
 _atom_site_label
 _atom_site_symmetry_multiplicity
 _atom_site_fract_x
 _atom_site_fract_y
 _atom_site_fract_z
 _atom_site_occupancy
  Tb  Tb0  1  0.750000  0.810209  0.393402  1
  Tb  Tb1  1  0.750000  0.825508  0.893129  1
  Tb  Tb2  1  0.750000  0.502210  0.227544  1
  Tb  Tb3  1  0.750000  0.666830  0.559751  1
  Tb  Tb4  1  0.250000  0.189791  0.606598  1
  Tb  Tb5  1  0.250000  0.019761  0.273668  1
  Tb  Tb6  1  0.250000  0.333170  0.440249  1
  Tb  Tb7  1  0.750000  0.980239  0.726332  1
  Tb  Tb8  1  0.250000  0.497790  0.772456  1
  Tb  Tb9  1  0.250000  0.174492  0.106871  1
  Tb  Tb10  1  0.750000  0.663841  0.060548  1
  Tb  Tb11  1  0.250000  0.336159  0.939452  1
  Ni  Ni12  1  0.750000  0.465941  0.678003  1
  Ni  Ni13  1  0.250000  0.709566  0.653799  1
  Ni  Ni14  1  0.750000  0.133203  0.511922  1
  Ni  Ni15  1  0.750000  0.290434  0.346201  1
  Ni  Ni16  1  0.750000  0.296026  0.844735  1
  Ni  Ni17  1  0.250000  0.534059  0.321997  1
  Ni  Ni18  1  0.750000  0.133932  0.011658  1
  Ni  Ni19  1  0.250000  0.866797  0.488078  1
  Ni  Ni20  1  0.250000  0.029115  0.821444  1
  Ni  Ni21  1  0.250000  0.866068  0.988342  1
  Ni  Ni22  1  0.250000  0.703974  0.155265  1
  Ni  Ni23  1  0.750000  0.970885  0.178556  1
