# generated using pymatgen
data_Tb14Ti10O41
_symmetry_space_group_name_H-M   'P 1'
_cell_length_a   7.29426345
_cell_length_b   7.31734919
_cell_length_c   21.82428687
_cell_angle_alpha   59.80615352
_cell_angle_beta   59.25020295
_cell_angle_gamma   59.89524729
_symmetry_Int_Tables_number   1
_chemical_formula_structural   Tb14Ti10O41
_chemical_formula_sum   'Tb14 Ti10 O41'
_cell_volume   817.08166604
_cell_formula_units_Z   1
loop_
 _symmetry_equiv_pos_site_id
 _symmetry_equiv_pos_as_xyz
  1  'x, y, z'
loop_
 _atom_site_type_symbol
 _atom_site_label
 _atom_site_symmetry_multiplicity
 _atom_site_fract_x
 _atom_site_fract_y
 _atom_site_fract_z
 _atom_site_occupancy
  Tb  Tb0  1  0.997385  0.495686  0.170414  1
  Tb  Tb1  1  0.500292  0.497311  0.001695  1
  Tb  Tb2  1  0.501776  0.997723  0.167240  1
  Tb  Tb3  1  0.501776  0.498782  0.167240  1
  Tb  Tb4  1  0.996309  0.501203  0.500429  1
  Tb  Tb5  1  0.491910  0.506542  0.331668  1
  Tb  Tb6  1  0.527713  0.006510  0.491219  1
  Tb  Tb7  1  0.527713  0.492121  0.491219  1
  Tb  Tb8  1  0.464787  0.530649  0.657972  1
  Tb  Tb9  1  0.511711  0.988638  0.834032  1
  Tb  Tb10  1  0.534467  0.984800  0.665311  1
  Tb  Tb11  1  0.511711  0.497555  0.834032  1
  Tb  Tb12  1  0.000927  0.968224  0.854208  1
  Tb  Tb13  1  0.997956  0.511924  0.826065  1
  Ti  Ti14  1  0.004199  0.002205  0.003936  1
  Ti  Ti15  1  0.004199  0.481786  0.003936  1
  Ti  Ti16  1  0.492799  0.001203  0.001598  1
  Ti  Ti17  1  0.005831  0.499067  0.332153  1
  Ti  Ti18  1  0.993944  0.999817  0.502140  1
  Ti  Ti19  1  0.002092  0.995144  0.169207  1
  Ti  Ti20  1  0.501312  0.999133  0.333474  1
  Ti  Ti21  1  0.005831  0.998642  0.332153  1
  Ti  Ti22  1  0.005516  0.477610  0.669457  1
  Ti  Ti23  1  0.005516  0.008504  0.669457  1
  O  O24  1  0.074321  0.697726  0.010076  1
  O  O25  1  0.078736  0.078470  0.222708  1
  O  O26  1  0.696264  0.067304  0.014823  1
  O  O27  1  0.375045  0.372547  0.126620  1
  O  O28  1  0.078736  0.674670  0.222708  1
  O  O29  1  0.088084  0.678977  0.351321  1
  O  O30  1  0.337007  0.912684  0.112541  1
  O  O31  1  0.003745  0.082154  0.568051  1
  O  O32  1  0.330879  0.331310  0.303679  1
  O  O33  1  0.675429  0.075748  0.224358  1
  O  O34  1  0.696264  0.691965  0.014823  1
  O  O35  1  0.914130  0.337034  0.113742  1
  O  O36  1  0.668400  0.083626  0.357760  1
  O  O37  1  0.623743  0.626736  0.207595  1
  O  O38  1  0.330879  0.926776  0.303679  1
  O  O39  1  0.366038  0.382875  0.456070  1
  O  O40  1  0.003745  0.709948  0.568051  1
  O  O41  1  0.061366  0.677147  0.694780  1
  O  O42  1  0.317889  0.927756  0.442200  1
  O  O43  1  0.327169  0.361555  0.629980  1
  O  O44  1  0.127266  0.135847  0.884927  1
  O  O45  1  0.659929  0.115442  0.536396  1
  O  O46  1  0.922474  0.331623  0.304760  1
  O  O47  1  0.914130  0.907611  0.113742  1
  O  O48  1  0.668400  0.674694  0.357760  1
  O  O49  1  0.926268  0.348505  0.439680  1
  O  O50  1  0.630801  0.150827  0.707119  1
  O  O51  1  0.622392  0.632438  0.537578  1
  O  O52  1  0.327169  0.921337  0.629980  1
  O  O53  1  0.127266  0.582107  0.884927  1
  O  O54  1  0.368287  0.879663  0.790796  1
  O  O55  1  0.325457  0.320466  0.989025  1
  O  O56  1  0.926268  0.906186  0.439680  1
  O  O57  1  0.979776  0.317429  0.628455  1
  O  O58  1  0.611499  0.113381  0.887246  1
  O  O59  1  0.630801  0.597013  0.707119  1
  O  O60  1  0.935150  0.331114  0.775637  1
  O  O61  1  0.640403  0.615105  0.876462  1
  O  O62  1  0.325457  0.887001  0.989025  1
  O  O63  1  0.935150  0.906826  0.775637  1
  O  O64  1  0.885120  0.312594  0.996564  1
