# generated using pymatgen
data_Tb4Mo4O11
_symmetry_space_group_name_H-M   'P 1'
_cell_length_a   5.74842722
_cell_length_b   10.85824056
_cell_length_c   16.09709902
_cell_angle_alpha   90.00000000
_cell_angle_beta   90.00000000
_cell_angle_gamma   90.00000000
_symmetry_Int_Tables_number   1
_chemical_formula_structural   Tb4Mo4O11
_chemical_formula_sum   'Tb16 Mo16 O44'
_cell_volume   1004.74559730
_cell_formula_units_Z   4
loop_
 _symmetry_equiv_pos_site_id
 _symmetry_equiv_pos_as_xyz
  1  'x, y, z'
loop_
 _atom_site_type_symbol
 _atom_site_label
 _atom_site_symmetry_multiplicity
 _atom_site_fract_x
 _atom_site_fract_y
 _atom_site_fract_z
 _atom_site_occupancy
  O  O0  1  0.245293  0.000000  0.000000  1
  O  O1  1  0.754707  0.500000  0.500000  1
  O  O2  1  0.754707  0.000000  0.000000  1
  O  O3  1  0.245293  0.500000  0.500000  1
  O  O4  1  0.000000  0.229331  0.523447  1
  O  O5  1  0.000000  0.770669  0.476553  1
  O  O6  1  0.000000  0.729331  0.976553  1
  O  O7  1  0.000000  0.270669  0.023447  1
  O  O8  1  0.000000  0.048023  0.653057  1
  O  O9  1  0.000000  0.951977  0.346943  1
  O  O10  1  0.000000  0.548023  0.846943  1
  O  O11  1  0.000000  0.451977  0.153057  1
  O  O12  1  0.500000  0.245560  0.513514  1
  O  O13  1  0.500000  0.754440  0.486486  1
  O  O14  1  0.500000  0.745560  0.986486  1
  O  O15  1  0.500000  0.254440  0.013514  1
  O  O16  1  0.500000  0.040606  0.665937  1
  O  O17  1  0.500000  0.959394  0.334063  1
  O  O18  1  0.762991  0.311386  0.861201  1
  O  O19  1  0.500000  0.540606  0.834063  1
  O  O20  1  0.247152  0.960731  0.172722  1
  O  O21  1  0.247152  0.039269  0.827278  1
  O  O22  1  0.752848  0.460731  0.327278  1
  O  O23  1  0.752848  0.539269  0.672722  1
  O  O24  1  0.752848  0.039269  0.827278  1
  O  O25  1  0.752848  0.960731  0.172722  1
  O  O26  1  0.247152  0.539269  0.672722  1
  O  O27  1  0.247152  0.460731  0.327278  1
  O  O28  1  0.237009  0.688614  0.138799  1
  O  O29  1  0.237009  0.311386  0.861201  1
  O  O30  1  0.762991  0.188614  0.361201  1
  O  O31  1  0.762991  0.811386  0.638799  1
  O  O32  1  0.263476  0.225852  0.173858  1
  O  O33  1  0.263476  0.774148  0.826142  1
  O  O34  1  0.736524  0.725852  0.326142  1
  O  O35  1  0.736524  0.274148  0.673858  1
  O  O36  1  0.736524  0.774148  0.826142  1
  O  O37  1  0.736524  0.225852  0.173858  1
  O  O38  1  0.263476  0.274148  0.673858  1
  O  O39  1  0.263476  0.725852  0.326142  1
  O  O40  1  0.237009  0.188614  0.361201  1
  O  O41  1  0.237009  0.811386  0.638799  1
  O  O42  1  0.762991  0.688614  0.138799  1
  O  O43  1  0.500000  0.459394  0.165937  1
  Mo  Mo44  1  0.000000  0.917309  0.559986  1
  Mo  Mo45  1  0.000000  0.082691  0.440014  1
  Mo  Mo46  1  0.000000  0.417309  0.940014  1
  Mo  Mo47  1  0.000000  0.582691  0.059986  1
  Mo  Mo48  1  0.500000  0.904298  0.570897  1
  Mo  Mo49  1  0.500000  0.095702  0.429103  1
  Mo  Mo50  1  0.500000  0.404298  0.929103  1
  Mo  Mo51  1  0.500000  0.595702  0.070897  1
  Mo  Mo52  1  0.275530  0.865322  0.414623  1
  Mo  Mo53  1  0.275530  0.134678  0.585377  1
  Mo  Mo54  1  0.724470  0.365322  0.085377  1
  Mo  Mo55  1  0.724470  0.634678  0.914623  1
  Mo  Mo56  1  0.724470  0.134678  0.585377  1
  Mo  Mo57  1  0.724470  0.865322  0.414623  1
  Mo  Mo58  1  0.275530  0.634678  0.914623  1
  Mo  Mo59  1  0.275530  0.365322  0.085377  1
  Tb  Tb60  1  0.000000  0.616925  0.577255  1
  Tb  Tb61  1  0.000000  0.383075  0.422745  1
  Tb  Tb62  1  0.000000  0.116925  0.922745  1
  Tb  Tb63  1  0.000000  0.883075  0.077255  1
  Tb  Tb64  1  0.000000  0.401875  0.737116  1
  Tb  Tb65  1  0.000000  0.598125  0.262884  1
  Tb  Tb66  1  0.000000  0.901875  0.762884  1
  Tb  Tb67  1  0.000000  0.098125  0.237116  1
  Tb  Tb68  1  0.500000  0.422123  0.598573  1
  Tb  Tb69  1  0.500000  0.577877  0.401427  1
  Tb  Tb70  1  0.500000  0.922123  0.901427  1
  Tb  Tb71  1  0.500000  0.077877  0.098573  1
  Tb  Tb72  1  0.500000  0.184379  0.776913  1
  Tb  Tb73  1  0.500000  0.815621  0.223087  1
  Tb  Tb74  1  0.500000  0.684379  0.723087  1
  Tb  Tb75  1  0.500000  0.315621  0.276913  1
