# generated using pymatgen
data_Tb4Nb4O11
_symmetry_space_group_name_H-M   'P 1'
_cell_length_a   10.97634593
_cell_length_b   16.28714170
_cell_length_c   5.82975662
_cell_angle_alpha   90.00000000
_cell_angle_beta   90.00000000
_cell_angle_gamma   90.00000000
_symmetry_Int_Tables_number   1
_chemical_formula_structural   Tb4Nb4O11
_chemical_formula_sum   'Tb16 Nb16 O44'
_cell_volume   1042.20483796
_cell_formula_units_Z   4
loop_
 _symmetry_equiv_pos_site_id
 _symmetry_equiv_pos_as_xyz
  1  'x, y, z'
loop_
 _atom_site_type_symbol
 _atom_site_label
 _atom_site_symmetry_multiplicity
 _atom_site_fract_x
 _atom_site_fract_y
 _atom_site_fract_z
 _atom_site_occupancy
  Tb  Tb0  1  0.076311  0.098722  0.500000  1
  Tb  Tb1  1  0.097178  0.235949  0.000000  1
  Tb  Tb2  1  0.112596  0.921679  0.000000  1
  Tb  Tb3  1  0.185968  0.778063  0.500000  1
  Tb  Tb4  1  0.314032  0.278063  0.500000  1
  Tb  Tb5  1  0.387404  0.421679  0.000000  1
  Tb  Tb6  1  0.402822  0.735949  0.000000  1
  Tb  Tb7  1  0.423689  0.598722  0.500000  1
  Tb  Tb8  1  0.576311  0.401278  0.500000  1
  Tb  Tb9  1  0.597178  0.264051  0.000000  1
  Tb  Tb10  1  0.612596  0.578321  0.000000  1
  Tb  Tb11  1  0.685968  0.721937  0.500000  1
  Tb  Tb12  1  0.814032  0.221937  0.500000  1
  Tb  Tb13  1  0.887404  0.078321  0.000000  1
  Tb  Tb14  1  0.902822  0.764051  0.000000  1
  Tb  Tb15  1  0.923689  0.901278  0.500000  1
  Nb  Nb16  1  0.089994  0.435194  0.000000  1
  Nb  Nb17  1  0.093481  0.431474  0.500000  1
  Nb  Nb18  1  0.139294  0.588637  0.250690  1
  Nb  Nb19  1  0.139294  0.588637  0.749310  1
  Nb  Nb20  1  0.360706  0.088637  0.250690  1
  Nb  Nb21  1  0.360706  0.088637  0.749310  1
  Nb  Nb22  1  0.406519  0.931474  0.500000  1
  Nb  Nb23  1  0.410006  0.935194  0.000000  1
  Nb  Nb24  1  0.589994  0.064806  0.000000  1
  Nb  Nb25  1  0.593481  0.068526  0.500000  1
  Nb  Nb26  1  0.639294  0.911363  0.250690  1
  Nb  Nb27  1  0.639294  0.911363  0.749310  1
  Nb  Nb28  1  0.860706  0.411363  0.250690  1
  Nb  Nb29  1  0.860706  0.411363  0.749310  1
  Nb  Nb30  1  0.906519  0.568526  0.500000  1
  Nb  Nb31  1  0.910006  0.564806  0.000000  1
  O  O32  1  0.000000  0.000000  0.246938  1
  O  O33  1  0.000000  0.000000  0.753062  1
  O  O34  1  0.050912  0.661666  0.500000  1
  O  O35  1  0.038591  0.828046  0.248582  1
  O  O36  1  0.038591  0.828046  0.751418  1
  O  O37  1  0.046574  0.659303  0.000000  1
  O  O38  1  0.191940  0.359344  0.243670  1
  O  O39  1  0.191940  0.359344  0.756330  1
  O  O40  1  0.221987  0.176012  0.264012  1
  O  O41  1  0.221987  0.176012  0.735988  1
  O  O42  1  0.239390  0.522282  0.000000  1
  O  O43  1  0.240173  0.521088  0.500000  1
  O  O44  1  0.259827  0.021088  0.500000  1
  O  O45  1  0.260610  0.022282  0.000000  1
  O  O46  1  0.278013  0.676012  0.264012  1
  O  O47  1  0.278013  0.676012  0.735988  1
  O  O48  1  0.308060  0.859344  0.243670  1
  O  O49  1  0.308060  0.859344  0.756330  1
  O  O50  1  0.453426  0.159303  0.000000  1
  O  O51  1  0.461409  0.328046  0.248582  1
  O  O52  1  0.461409  0.328046  0.751418  1
  O  O53  1  0.449088  0.161666  0.500000  1
  O  O54  1  0.500000  0.500000  0.246938  1
  O  O55  1  0.500000  0.500000  0.753062  1
  O  O56  1  0.550912  0.838334  0.500000  1
  O  O57  1  0.538591  0.671954  0.248582  1
  O  O58  1  0.538591  0.671954  0.751418  1
  O  O59  1  0.546574  0.840697  0.000000  1
  O  O60  1  0.691940  0.140656  0.243670  1
  O  O61  1  0.691940  0.140656  0.756330  1
  O  O62  1  0.721987  0.323988  0.264012  1
  O  O63  1  0.721987  0.323988  0.735988  1
  O  O64  1  0.739390  0.977718  0.000000  1
  O  O65  1  0.740173  0.978912  0.500000  1
  O  O66  1  0.759827  0.478912  0.500000  1
  O  O67  1  0.760610  0.477718  0.000000  1
  O  O68  1  0.778013  0.823988  0.264012  1
  O  O69  1  0.778013  0.823988  0.735988  1
  O  O70  1  0.808060  0.640656  0.243670  1
  O  O71  1  0.808060  0.640656  0.756330  1
  O  O72  1  0.953426  0.340697  0.000000  1
  O  O73  1  0.961409  0.171954  0.248582  1
  O  O74  1  0.961409  0.171954  0.751418  1
  O  O75  1  0.949088  0.338334  0.500000  1
