# generated using pymatgen
data_Tb2TiO5
_symmetry_space_group_name_H-M   'P 1'
_cell_length_a   7.38028731
_cell_length_b   7.60453633
_cell_length_c   22.71375534
_cell_angle_alpha   59.35098741
_cell_angle_beta   57.91483478
_cell_angle_gamma   58.08166657
_symmetry_Int_Tables_number   1
_chemical_formula_structural   Tb2TiO5
_chemical_formula_sum   'Tb16 Ti8 O40'
_cell_volume   869.07114624
_cell_formula_units_Z   8
loop_
 _symmetry_equiv_pos_site_id
 _symmetry_equiv_pos_as_xyz
  1  'x, y, z'
loop_
 _atom_site_type_symbol
 _atom_site_label
 _atom_site_symmetry_multiplicity
 _atom_site_fract_x
 _atom_site_fract_y
 _atom_site_fract_z
 _atom_site_occupancy
  Tb  Tb0  1  0.476321  0.981147  0.996062  1
  Tb  Tb1  1  0.462833  0.488668  0.012657  1
  Tb  Tb2  1  0.415592  0.526333  0.175653  1
  Tb  Tb3  1  0.495555  0.004491  0.330406  1
  Tb  Tb4  1  0.016937  0.525315  0.479154  1
  Tb  Tb5  1  0.985144  0.462334  0.000640  1
  Tb  Tb6  1  0.577605  0.479281  0.324086  1
  Tb  Tb7  1  0.513435  0.020191  0.490209  1
  Tb  Tb8  1  0.435710  0.009165  0.177829  1
  Tb  Tb9  1  0.492542  0.477740  0.497009  1
  Tb  Tb10  1  0.534559  0.996374  0.662512  1
  Tb  Tb11  1  0.985137  0.513985  0.835605  1
  Tb  Tb12  1  0.516281  0.491865  0.663719  1
  Tb  Tb13  1  0.487767  0.023578  0.825802  1
  Tb  Tb14  1  0.468568  0.495522  0.836632  1
  Tb  Tb15  1  0.014268  0.009964  0.814605  1
  Ti  Ti16  1  0.956586  0.056264  0.990549  1
  Ti  Ti17  1  0.969695  0.524552  0.136929  1
  Ti  Ti18  1  0.998301  0.925725  0.515646  1
  Ti  Ti19  1  0.992957  0.995208  0.179805  1
  Ti  Ti20  1  0.989975  0.998924  0.339446  1
  Ti  Ti21  1  0.987904  0.487016  0.349054  1
  Ti  Ti22  1  0.984148  0.031141  0.657853  1
  Ti  Ti23  1  0.016889  0.470803  0.665564  1
  O  O24  1  0.036583  0.706688  0.042888  1
  O  O25  1  0.031731  0.056826  0.239831  1
  O  O26  1  0.266449  0.394095  0.142386  1
  O  O27  1  0.022336  0.706265  0.228451  1
  O  O28  1  0.656950  0.077585  0.049863  1
  O  O29  1  0.318176  0.375054  0.302836  1
  O  O30  1  0.996703  0.701056  0.364309  1
  O  O31  1  0.314227  0.908028  0.128065  1
  O  O32  1  0.890848  0.322739  0.591142  1
  O  O33  1  0.654078  0.106572  0.202722  1
  O  O34  1  0.605646  0.613629  0.054374  1
  O  O35  1  0.323519  0.879766  0.306454  1
  O  O36  1  0.955259  0.330521  0.119797  1
  O  O37  1  0.377951  0.374850  0.449288  1
  O  O38  1  0.087738  0.620539  0.545978  1
  O  O39  1  0.656730  0.106505  0.363884  1
  O  O40  1  0.665862  0.632898  0.199526  1
  O  O41  1  0.345458  0.430680  0.621421  1
  O  O42  1  0.352841  0.400049  0.785987  1
  O  O43  1  0.307837  0.906820  0.465590  1
  O  O44  1  0.074919  0.089524  0.890109  1
  O  O45  1  0.947948  0.286143  0.323733  1
  O  O46  1  0.097343  0.083062  0.032303  1
  O  O47  1  0.651327  0.630951  0.370529  1
  O  O48  1  0.642258  0.107282  0.539510  1
  O  O49  1  0.931469  0.329534  0.449478  1
  O  O50  1  0.312866  0.876490  0.612462  1
  O  O51  1  0.078511  0.654780  0.880633  1
  O  O52  1  0.638514  0.130068  0.701436  1
  O  O53  1  0.373413  0.373933  0.959948  1
  O  O54  1  0.404994  0.855430  0.786200  1
  O  O55  1  0.642384  0.124340  0.868606  1
  O  O56  1  0.097033  0.173230  0.686608  1
  O  O57  1  0.909496  0.893180  0.448613  1
  O  O58  1  0.702323  0.621826  0.675210  1
  O  O59  1  0.933318  0.432013  0.763592  1
  O  O60  1  0.466268  0.805820  0.936885  1
  O  O61  1  0.937323  0.900327  0.610734  1
  O  O62  1  0.840344  0.376300  0.955860  1
  O  O63  1  0.926319  0.859017  0.762004  1
