# generated using pymatgen
data_Tb2WO6
_symmetry_space_group_name_H-M   'P 1'
_cell_length_a   16.21430524
_cell_length_b   10.67103985
_cell_length_c   5.63301184
_cell_angle_alpha   90.00000000
_cell_angle_beta   90.00000000
_cell_angle_gamma   90.00000000
_symmetry_Int_Tables_number   1
_chemical_formula_structural   Tb2WO6
_chemical_formula_sum   'Tb16 W8 O48'
_cell_volume   974.64340921
_cell_formula_units_Z   8
loop_
 _symmetry_equiv_pos_site_id
 _symmetry_equiv_pos_as_xyz
  1  'x, y, z'
loop_
 _atom_site_type_symbol
 _atom_site_label
 _atom_site_symmetry_multiplicity
 _atom_site_fract_x
 _atom_site_fract_y
 _atom_site_fract_z
 _atom_site_occupancy
  Tb  Tb0  1  0.061848  0.358116  0.101242  1
  Tb  Tb1  1  0.061848  0.141884  0.601242  1
  Tb  Tb2  1  0.230549  0.145171  0.051026  1
  Tb  Tb3  1  0.230549  0.354829  0.551026  1
  Tb  Tb4  1  0.269451  0.645171  0.051026  1
  Tb  Tb5  1  0.269451  0.854829  0.551026  1
  Tb  Tb6  1  0.438152  0.641884  0.601242  1
  Tb  Tb7  1  0.438152  0.858116  0.101242  1
  Tb  Tb8  1  0.561848  0.141884  0.898758  1
  Tb  Tb9  1  0.561848  0.358116  0.398758  1
  Tb  Tb10  1  0.730549  0.145171  0.448974  1
  Tb  Tb11  1  0.730549  0.354829  0.948974  1
  Tb  Tb12  1  0.769451  0.645171  0.448974  1
  Tb  Tb13  1  0.769451  0.854829  0.948974  1
  Tb  Tb14  1  0.938152  0.641884  0.898758  1
  Tb  Tb15  1  0.938152  0.858116  0.398758  1
  W  W16  1  0.119874  0.620932  0.610591  1
  W  W17  1  0.119874  0.879068  0.110591  1
  W  W18  1  0.380126  0.120932  0.610591  1
  W  W19  1  0.380126  0.379068  0.110591  1
  W  W20  1  0.619874  0.620932  0.889409  1
  W  W21  1  0.619874  0.879068  0.389409  1
  W  W22  1  0.880126  0.120932  0.889409  1
  W  W23  1  0.880126  0.379068  0.389409  1
  O  O24  1  0.022254  0.784474  0.080706  1
  O  O25  1  0.022254  0.715526  0.580706  1
  O  O26  1  0.072347  0.541507  0.877094  1
  O  O27  1  0.072347  0.958493  0.377094  1
  O  O28  1  0.106868  0.011206  0.905784  1
  O  O29  1  0.106868  0.488795  0.405784  1
  O  O30  1  0.146549  0.230038  0.324368  1
  O  O31  1  0.146549  0.269962  0.824368  1
  O  O32  1  0.170711  0.731122  0.341243  1
  O  O33  1  0.170711  0.768878  0.841243  1
  O  O34  1  0.230978  0.940709  0.183453  1
  O  O35  1  0.230978  0.559291  0.683453  1
  O  O36  1  0.269022  0.059291  0.683453  1
  O  O37  1  0.269022  0.440709  0.183453  1
  O  O38  1  0.329289  0.231122  0.341243  1
  O  O39  1  0.329289  0.268878  0.841243  1
  O  O40  1  0.353451  0.730038  0.324368  1
  O  O41  1  0.353451  0.769962  0.824368  1
  O  O42  1  0.393132  0.511205  0.905784  1
  O  O43  1  0.393132  0.988795  0.405784  1
  O  O44  1  0.427653  0.041507  0.877094  1
  O  O45  1  0.427653  0.458493  0.377094  1
  O  O46  1  0.477745  0.215526  0.580706  1
  O  O47  1  0.477745  0.284474  0.080706  1
  O  O48  1  0.522254  0.715526  0.919294  1
  O  O49  1  0.522254  0.784474  0.419294  1
  O  O50  1  0.572347  0.541507  0.622906  1
  O  O51  1  0.572347  0.958493  0.122906  1
  O  O52  1  0.606868  0.011206  0.594216  1
  O  O53  1  0.606868  0.488795  0.094216  1
  O  O54  1  0.646549  0.230038  0.175632  1
  O  O55  1  0.646549  0.269962  0.675632  1
  O  O56  1  0.670711  0.731122  0.158757  1
  O  O57  1  0.670711  0.768878  0.658757  1
  O  O58  1  0.730978  0.559291  0.816547  1
  O  O59  1  0.730978  0.940709  0.316547  1
  O  O60  1  0.769022  0.059291  0.816547  1
  O  O61  1  0.769022  0.440709  0.316547  1
  O  O62  1  0.829289  0.231122  0.158757  1
  O  O63  1  0.829289  0.268878  0.658757  1
  O  O64  1  0.853451  0.730038  0.175632  1
  O  O65  1  0.853451  0.769962  0.675632  1
  O  O66  1  0.893132  0.511205  0.594216  1
  O  O67  1  0.893132  0.988795  0.094216  1
  O  O68  1  0.927653  0.041507  0.622906  1
  O  O69  1  0.927653  0.458493  0.122906  1
  O  O70  1  0.977746  0.215526  0.919294  1
  O  O71  1  0.977746  0.284474  0.419294  1
