# generated using pymatgen
data_Co2Mo4N
_symmetry_space_group_name_H-M   'P 1'
_cell_length_a   7.96524456
_cell_length_b   7.96518607
_cell_length_c   7.96461673
_cell_angle_alpha   60.00137678
_cell_angle_beta   60.00159118
_cell_angle_gamma   60.00400855
_symmetry_Int_Tables_number   1
_chemical_formula_structural   Co2Mo4N
_chemical_formula_sum   'Co8 Mo16 N4'
_cell_volume   357.32863504
_cell_formula_units_Z   4
loop_
 _symmetry_equiv_pos_site_id
 _symmetry_equiv_pos_as_xyz
  1  'x, y, z'
loop_
 _atom_site_type_symbol
 _atom_site_label
 _atom_site_symmetry_multiplicity
 _atom_site_fract_x
 _atom_site_fract_y
 _atom_site_fract_z
 _atom_site_occupancy
  Co  Co0  1  0.293069  0.292998  0.620906  1
  Co  Co1  1  0.620853  0.293022  0.293071  1
  Co  Co2  1  0.293085  0.293012  0.293062  1
  Co  Co3  1  0.293058  0.620885  0.293038  1
  Co  Co4  1  0.707040  0.707041  0.378889  1
  Co  Co5  1  0.707068  0.378877  0.706994  1
  Co  Co6  1  0.378829  0.707084  0.707011  1
  Co  Co7  1  0.707084  0.707085  0.707010  1
  Mo  Mo8  1  0.684722  0.065281  0.065319  1
  Mo  Mo9  1  0.499978  0.500002  0.000126  1
  Mo  Mo10  1  0.934683  0.315326  0.934698  1
  Mo  Mo11  1  0.315328  0.934693  0.934682  1
  Mo  Mo12  1  0.315294  0.934658  0.315322  1
  Mo  Mo13  1  0.934671  0.934698  0.315346  1
  Mo  Mo14  1  0.934649  0.315293  0.315319  1
  Mo  Mo15  1  0.684693  0.684672  0.065316  1
  Mo  Mo16  1  0.065312  0.684685  0.684670  1
  Mo  Mo17  1  0.499960  0.000167  0.499993  1
  Mo  Mo18  1  0.684698  0.065301  0.684661  1
  Mo  Mo19  1  0.065314  0.065294  0.684700  1
  Mo  Mo20  1  0.065291  0.684711  0.065309  1
  Mo  Mo21  1  0.000161  0.499980  0.499987  1
  Mo  Mo22  1  0.499889  0.499915  0.499918  1
  Mo  Mo23  1  0.315301  0.315303  0.934659  1
  N  N24  1  0.000013  0.000024  0.000019  1
  N  N25  1  0.000012  0.000022  0.499941  1
  N  N26  1  0.499934  0.000022  0.000018  1
  N  N27  1  0.000011  0.499948  0.000017  1
