# generated using pymatgen
data_Ag2WO4
_symmetry_space_group_name_H-M   'P 1'
_cell_length_a   5.98296269
_cell_length_b   10.95570579
_cell_length_c   12.62809382
_cell_angle_alpha   90.00000000
_cell_angle_beta   90.00000000
_cell_angle_gamma   90.00000000
_symmetry_Int_Tables_number   1
_chemical_formula_structural   Ag2WO4
_chemical_formula_sum   'Ag16 W8 O32'
_cell_volume   827.74097709
_cell_formula_units_Z   8
loop_
 _symmetry_equiv_pos_site_id
 _symmetry_equiv_pos_as_xyz
  1  'x, y, z'
loop_
 _atom_site_type_symbol
 _atom_site_label
 _atom_site_symmetry_multiplicity
 _atom_site_fract_x
 _atom_site_fract_y
 _atom_site_fract_z
 _atom_site_occupancy
  O  O0  1  0.359891  0.316746  0.884303  1
  O  O1  1  0.640110  0.683254  0.884303  1
  O  O2  1  0.140110  0.816746  0.384303  1
  O  O3  1  0.859890  0.183254  0.384303  1
  O  O4  1  0.360028  0.316212  0.106452  1
  O  O5  1  0.639973  0.683788  0.106452  1
  O  O6  1  0.139972  0.816212  0.606452  1
  O  O7  1  0.860027  0.183788  0.606452  1
  O  O8  1  0.349433  0.087324  0.995183  1
  O  O9  1  0.650568  0.912676  0.995183  1
  O  O10  1  0.150567  0.587324  0.495183  1
  O  O11  1  0.849432  0.412676  0.495183  1
  O  O12  1  0.774056  0.353902  0.995412  1
  O  O13  1  0.225943  0.646097  0.995412  1
  O  O14  1  0.725944  0.853903  0.495413  1
  O  O15  1  0.274056  0.146098  0.495413  1
  O  O16  1  0.312269  0.080253  0.764135  1
  O  O17  1  0.687730  0.919747  0.764135  1
  O  O18  1  0.187730  0.580253  0.264135  1
  O  O19  1  0.812270  0.419747  0.264135  1
  O  O20  1  0.312883  0.080561  0.226382  1
  O  O21  1  0.687118  0.919440  0.226382  1
  O  O22  1  0.187117  0.580561  0.726383  1
  O  O23  1  0.812882  0.419440  0.726383  1
  O  O24  1  0.196451  0.363370  0.603632  1
  O  O25  1  0.803548  0.636631  0.603632  1
  O  O26  1  0.303550  0.863370  0.103632  1
  O  O27  1  0.696452  0.136631  0.103632  1
  O  O28  1  0.696056  0.136900  0.886668  1
  O  O29  1  0.803944  0.636900  0.386669  1
  O  O30  1  0.303945  0.863100  0.886668  1
  O  O31  1  0.196056  0.363099  0.386669  1
  Ag  Ag32  1  0.000000  0.500000  0.995546  1
  Ag  Ag33  1  0.499999  0.000000  0.495546  1
  Ag  Ag34  1  0.499999  0.500000  0.807906  1
  Ag  Ag35  1  0.000000  0.000000  0.307906  1
  Ag  Ag36  1  0.499999  0.500000  0.180802  1
  Ag  Ag37  1  0.000000  0.000000  0.680802  1
  Ag  Ag38  1  0.499999  0.500000  0.495511  1
  Ag  Ag39  1  0.000000  0.000000  0.995511  1
  Ag  Ag40  1  0.514572  0.258003  0.321294  1
  Ag  Ag41  1  0.485426  0.741997  0.321294  1
  Ag  Ag42  1  0.985428  0.758003  0.821294  1
  Ag  Ag43  1  0.014573  0.241998  0.821294  1
  Ag  Ag44  1  0.985903  0.757456  0.168845  1
  Ag  Ag45  1  0.514097  0.257455  0.668845  1
  Ag  Ag46  1  0.014097  0.242545  0.168845  1
  Ag  Ag47  1  0.485902  0.742545  0.668845  1
  W  W48  1  0.000000  0.500000  0.636153  1
  W  W49  1  0.499999  0.000000  0.136153  1
  W  W50  1  0.000000  0.500000  0.354291  1
  W  W51  1  0.499999  0.000000  0.854291  1
  W  W52  1  0.026244  0.244580  0.495189  1
  W  W53  1  0.973755  0.755420  0.495189  1
  W  W54  1  0.473756  0.744581  0.995189  1
  W  W55  1  0.526245  0.255420  0.995189  1
