# generated using pymatgen
data_Co2W4C
_symmetry_space_group_name_H-M   'P 1'
_cell_length_a   8.01279242
_cell_length_b   8.01329552
_cell_length_c   8.01294261
_cell_angle_alpha   59.99776027
_cell_angle_beta   59.99629028
_cell_angle_gamma   59.99739571
_symmetry_Int_Tables_number   1
_chemical_formula_structural   Co2W4C
_chemical_formula_sum   'Co8 W16 C4'
_cell_volume   363.78434765
_cell_formula_units_Z   4
loop_
 _symmetry_equiv_pos_site_id
 _symmetry_equiv_pos_as_xyz
  1  'x, y, z'
loop_
 _atom_site_type_symbol
 _atom_site_label
 _atom_site_symmetry_multiplicity
 _atom_site_fract_x
 _atom_site_fract_y
 _atom_site_fract_z
 _atom_site_occupancy
  Co  Co0  1  0.619407  0.293536  0.293514  1
  Co  Co1  1  0.293509  0.293523  0.619439  1
  Co  Co2  1  0.293483  0.619522  0.293473  1
  Co  Co3  1  0.706489  0.706458  0.380596  1
  Co  Co4  1  0.380597  0.706452  0.706496  1
  Co  Co5  1  0.293501  0.293533  0.293493  1
  Co  Co6  1  0.706493  0.706464  0.706503  1
  Co  Co7  1  0.706491  0.380539  0.706505  1
  W  W8  1  0.499982  0.500011  0.000026  1
  W  W9  1  0.313313  0.936666  0.936709  1
  W  W10  1  0.686696  0.063316  0.063290  1
  W  W11  1  0.063314  0.686689  0.063302  1
  W  W12  1  0.686704  0.063276  0.686711  1
  W  W13  1  0.686696  0.686690  0.063277  1
  W  W14  1  0.063300  0.063316  0.686695  1
  W  W15  1  0.936721  0.936665  0.313305  1
  W  W16  1  0.499985  0.000010  0.500001  1
  W  W17  1  0.313306  0.936700  0.313302  1
  W  W18  1  0.063287  0.686682  0.686695  1
  W  W19  1  0.936684  0.313324  0.936672  1
  W  W20  1  0.936727  0.313308  0.313302  1
  W  W21  1  0.000036  0.500002  0.499988  1
  W  W22  1  0.499970  0.500016  0.499984  1
  W  W23  1  0.313307  0.313310  0.936717  1
  C  C24  1  -0.000002  0.000007  0.999996  1
  C  C25  1  0.000005  0.999994  0.500006  1
  C  C26  1  0.500003  -0.000005  0.000005  1
  C  C27  1  -0.000002  0.499998  0.999997  1
