# generated using pymatgen
data_Tb12Co7
_symmetry_space_group_name_H-M   'P 1'
_cell_length_a   8.31890715
_cell_length_b   9.21880017
_cell_length_c   11.30359756
_cell_angle_alpha   90.00000000
_cell_angle_beta   90.00000000
_cell_angle_gamma   101.81768601
_symmetry_Int_Tables_number   1
_chemical_formula_structural   Tb12Co7
_chemical_formula_sum   'Tb24 Co14'
_cell_volume   848.50263866
_cell_formula_units_Z   2
loop_
 _symmetry_equiv_pos_site_id
 _symmetry_equiv_pos_as_xyz
  1  'x, y, z'
loop_
 _atom_site_type_symbol
 _atom_site_label
 _atom_site_symmetry_multiplicity
 _atom_site_fract_x
 _atom_site_fract_y
 _atom_site_fract_z
 _atom_site_occupancy
  Co  Co0  1  0.000000  0.500000  0.500000  1
  Co  Co1  1  0.500000  0.000000  0.000000  1
  Co  Co2  1  0.066315  0.972338  0.321610  1
  Co  Co3  1  0.433685  0.527662  0.821610  1
  Co  Co4  1  0.933685  0.027662  0.678390  1
  Co  Co5  1  0.566315  0.472338  0.178390  1
  Co  Co6  1  0.404680  0.900270  0.599669  1
  Co  Co7  1  0.095320  0.599730  0.099669  1
  Co  Co8  1  0.595320  0.099730  0.400331  1
  Co  Co9  1  0.904680  0.400270  0.900331  1
  Co  Co10  1  0.060029  0.158914  0.189202  1
  Co  Co11  1  0.439971  0.341086  0.689202  1
  Co  Co12  1  0.939971  0.841086  0.810798  1
  Co  Co13  1  0.560029  0.658914  0.310798  1
  Tb  Tb14  1  0.226924  0.460787  0.294400  1
  Tb  Tb15  1  0.273076  0.039213  0.794400  1
  Tb  Tb16  1  0.839542  0.341563  0.159575  1
  Tb  Tb17  1  0.660458  0.158437  0.659575  1
  Tb  Tb18  1  0.160458  0.658437  0.840425  1
  Tb  Tb19  1  0.339542  0.841563  0.340425  1
  Tb  Tb20  1  0.804584  0.646472  0.996445  1
  Tb  Tb21  1  0.695416  0.853528  0.496445  1
  Tb  Tb22  1  0.195416  0.353528  0.003555  1
  Tb  Tb23  1  0.304584  0.146472  0.503555  1
  Tb  Tb24  1  0.726924  0.960787  0.205600  1
  Tb  Tb25  1  0.773076  0.539213  0.705600  1
  Tb  Tb26  1  0.146525  0.914377  0.071486  1
  Tb  Tb27  1  0.353475  0.585623  0.571486  1
  Tb  Tb28  1  0.853475  0.085623  0.928514  1
  Tb  Tb29  1  0.646525  0.414377  0.428514  1
  Tb  Tb30  1  0.075001  0.323615  0.699169  1
  Tb  Tb31  1  0.424999  0.176385  0.199169  1
  Tb  Tb32  1  0.924999  0.676385  0.300831  1
  Tb  Tb33  1  0.575001  0.823615  0.800831  1
  Tb  Tb34  1  0.429144  0.691266  0.069666  1
  Tb  Tb35  1  0.070856  0.808734  0.569666  1
  Tb  Tb36  1  0.570856  0.308734  0.930334  1
  Tb  Tb37  1  0.929144  0.191266  0.430334  1
