# generated using pymatgen
data_Tb(BIr)4
_symmetry_space_group_name_H-M   'P 1'
_cell_length_a   7.64396237
_cell_length_b   7.64396371
_cell_length_c   3.99155539
_cell_angle_alpha   89.99998196
_cell_angle_beta   90.00010369
_cell_angle_gamma   89.99998209
_symmetry_Int_Tables_number   1
_chemical_formula_structural   Tb(BIr)4
_chemical_formula_sum   'Tb2 B8 Ir8'
_cell_volume   233.22726382
_cell_formula_units_Z   2
loop_
 _symmetry_equiv_pos_site_id
 _symmetry_equiv_pos_as_xyz
  1  'x, y, z'
loop_
 _atom_site_type_symbol
 _atom_site_label
 _atom_site_symmetry_multiplicity
 _atom_site_fract_x
 _atom_site_fract_y
 _atom_site_fract_z
 _atom_site_occupancy
  Tb  Tb0  1  0.250000  0.250001  0.250006  1
  Tb  Tb1  1  0.750000  0.749999  0.750006  1
  B  B2  1  0.028377  0.592023  0.138577  1
  B  B3  1  0.471622  0.907977  0.138576  1
  B  B4  1  0.907980  0.028377  0.361429  1
  B  B5  1  0.592020  0.471623  0.361429  1
  B  B6  1  0.407978  0.528377  0.638577  1
  B  B7  1  0.092023  0.971623  0.638578  1
  B  B8  1  0.528378  0.092019  0.861429  1
  B  B9  1  0.971623  0.407980  0.861429  1
  Ir  Ir10  1  0.409969  0.640581  0.137191  1
  Ir  Ir11  1  0.090031  0.859418  0.137189  1
  Ir  Ir12  1  0.640585  0.090037  0.362806  1
  Ir  Ir13  1  0.859414  0.409962  0.362803  1
  Ir  Ir14  1  0.140580  0.590032  0.637189  1
  Ir  Ir15  1  0.359418  0.909969  0.637189  1
  Ir  Ir16  1  0.909963  0.140586  0.862804  1
  Ir  Ir17  1  0.590037  0.359415  0.862804  1
