# generated using pymatgen
data_Co9Cu3O16
_symmetry_space_group_name_H-M   'P 1'
_cell_length_a   5.85860542
_cell_length_b   5.85860541
_cell_length_c   10.18585975
_cell_angle_alpha   106.71344610
_cell_angle_beta   90.00000000
_cell_angle_gamma   60.00000004
_symmetry_Int_Tables_number   1
_chemical_formula_structural   Co9Cu3O16
_chemical_formula_sum   'Co9 Cu3 O16'
_cell_volume   285.59133539
_cell_formula_units_Z   1
loop_
 _symmetry_equiv_pos_site_id
 _symmetry_equiv_pos_as_xyz
  1  'x, y, z'
loop_
 _atom_site_type_symbol
 _atom_site_label
 _atom_site_symmetry_multiplicity
 _atom_site_fract_x
 _atom_site_fract_y
 _atom_site_fract_z
 _atom_site_occupancy
  Co  Co0  1  0.061754  0.876492  0.314431  1
  Co  Co1  1  0.999190  0.001620  0.002430  1
  Co  Co2  1  0.562060  0.376185  0.314431  1
  Co  Co3  1  0.061754  0.376185  0.314431  1
  Co  Co4  1  0.126038  0.747923  0.621884  1
  Co  Co5  1  0.813001  0.373998  0.560998  1
  Co  Co6  1  0.563886  0.872228  0.810988  1
  Co  Co7  1  0.563886  0.374874  0.810988  1
  Co  Co8  1  0.061240  0.374874  0.810988  1
  Cu  Cu9  1  0.623715  0.752569  0.128855  1
  Cu  Cu10  1  0.312571  0.374857  0.062286  1
  Cu  Cu11  1  0.500614  0.998772  0.498158  1
  O  O12  1  0.958853  0.620801  0.200455  1
  O  O13  1  0.420346  0.620801  0.200455  1
  O  O14  1  0.420346  0.159308  0.200455  1
  O  O15  1  0.194642  0.610715  0.416072  1
  O  O16  1  0.705786  0.588429  0.433850  1
  O  O17  1  0.929777  0.140446  0.210669  1
  O  O18  1  0.154579  0.139635  0.433850  1
  O  O19  1  0.705786  0.139635  0.433850  1
  O  O20  1  0.471450  0.605790  0.683030  1
  O  O21  1  0.922760  0.605790  0.683030  1
  O  O22  1  0.922760  0.154480  0.683030  1
  O  O23  1  0.691610  0.616780  0.925170  1
  O  O24  1  0.199382  0.601236  0.932014  1
  O  O25  1  0.433608  0.132784  0.699176  1
  O  O26  1  0.199382  0.131396  0.932014  1
  O  O27  1  0.669222  0.131396  0.932014  1
