# generated using pymatgen
data_TbCd3
_symmetry_space_group_name_H-M   'P 1'
_cell_length_a   4.91444697
_cell_length_b   6.55521191
_cell_length_c   6.55521236
_cell_angle_alpha   113.65354469
_cell_angle_beta   90.00000000
_cell_angle_gamma   90.00000000
_symmetry_Int_Tables_number   1
_chemical_formula_structural   TbCd3
_chemical_formula_sum   'Tb2 Cd6'
_cell_volume   193.43632362
_cell_formula_units_Z   2
loop_
 _symmetry_equiv_pos_site_id
 _symmetry_equiv_pos_as_xyz
  1  'x, y, z'
loop_
 _atom_site_type_symbol
 _atom_site_label
 _atom_site_symmetry_multiplicity
 _atom_site_fract_x
 _atom_site_fract_y
 _atom_site_fract_z
 _atom_site_occupancy
  Tb  Tb0  1  0.250000  0.635221  0.364779  1
  Tb  Tb1  1  0.750000  0.364779  0.635221  1
  Cd  Cd2  1  0.250000  0.689862  0.880548  1
  Cd  Cd3  1  0.250000  0.176223  0.823777  1
  Cd  Cd4  1  0.250000  0.119452  0.310138  1
  Cd  Cd5  1  0.750000  0.310138  0.119452  1
  Cd  Cd6  1  0.750000  0.880548  0.689862  1
  Cd  Cd7  1  0.750000  0.823777  0.176223  1
