# generated using pymatgen
data_TbCrO4
_symmetry_space_group_name_H-M   'P 1'
_cell_length_a   6.01568086
_cell_length_b   6.01568085
_cell_length_c   6.01568085
_cell_angle_alpha   105.96377764
_cell_angle_beta   105.96377767
_cell_angle_gamma   116.73988683
_symmetry_Int_Tables_number   1
_chemical_formula_structural   TbCrO4
_chemical_formula_sum   'Tb2 Cr2 O8'
_cell_volume   165.53672197
_cell_formula_units_Z   2
loop_
 _symmetry_equiv_pos_site_id
 _symmetry_equiv_pos_as_xyz
  1  'x, y, z'
loop_
 _atom_site_type_symbol
 _atom_site_label
 _atom_site_symmetry_multiplicity
 _atom_site_fract_x
 _atom_site_fract_y
 _atom_site_fract_z
 _atom_site_occupancy
  O  O0  1  0.798885  0.732475  0.433590  1
  O  O1  1  0.365295  0.798885  0.566410  1
  O  O2  1  0.732475  0.798885  0.933590  1
  O  O3  1  0.798885  0.365295  0.066410  1
  O  O4  1  0.634705  0.201115  0.433590  1
  O  O5  1  0.201115  0.267525  0.566410  1
  O  O6  1  0.201115  0.634705  0.933590  1
  O  O7  1  0.267525  0.201115  0.066410  1
  Cr  Cr8  1  0.375000  0.625000  0.750000  1
  Cr  Cr9  1  0.625000  0.375000  0.250000  1
  Tb  Tb10  1  0.125000  0.875000  0.250000  1
  Tb  Tb11  1  0.875000  0.125000  0.750000  1
