# generated using pymatgen
data_TbNbO4
_symmetry_space_group_name_H-M   'P 1'
_cell_length_a   5.43915475
_cell_length_b   5.13537010
_cell_length_c   5.44106425
_cell_angle_alpha   89.93033642
_cell_angle_beta   90.00515249
_cell_angle_gamma   90.10793018
_symmetry_Int_Tables_number   1
_chemical_formula_structural   TbNbO4
_chemical_formula_sum   'Tb2 Nb2 O8'
_cell_volume   151.97981953
_cell_formula_units_Z   2
loop_
 _symmetry_equiv_pos_site_id
 _symmetry_equiv_pos_as_xyz
  1  'x, y, z'
loop_
 _atom_site_type_symbol
 _atom_site_label
 _atom_site_symmetry_multiplicity
 _atom_site_fract_x
 _atom_site_fract_y
 _atom_site_fract_z
 _atom_site_occupancy
  Tb  Tb0  1  0.257638  0.999940  0.749991  1
  Tb  Tb1  1  0.758016  0.000005  0.249944  1
  Nb  Nb2  1  0.258101  0.500009  0.248960  1
  Nb  Nb3  1  0.757074  0.500034  0.750967  1
  O  O4  1  0.068487  0.742464  0.061529  1
  O  O5  1  0.070231  0.257294  0.438034  1
  O  O6  1  0.446663  0.741255  0.438989  1
  O  O7  1  0.448313  0.258980  0.060551  1
  O  O8  1  0.569899  0.257173  0.561503  1
  O  O9  1  0.568153  0.742574  0.938831  1
  O  O10  1  0.946316  0.741155  0.561374  1
  O  O11  1  0.947994  0.259116  0.938998  1
