# generated using pymatgen
data_Tb(NiB)2
_symmetry_space_group_name_H-M   'P 1'
_cell_length_a   4.97205458
_cell_length_b   4.97205458
_cell_length_c   6.08377183
_cell_angle_alpha   102.62871410
_cell_angle_beta   104.19842018
_cell_angle_gamma   115.61738031
_symmetry_Int_Tables_number   1
_chemical_formula_structural   Tb(NiB)2
_chemical_formula_sum   'Tb2 Ni4 B4'
_cell_volume   122.06714395
_cell_formula_units_Z   2
loop_
 _symmetry_equiv_pos_site_id
 _symmetry_equiv_pos_as_xyz
  1  'x, y, z'
loop_
 _atom_site_type_symbol
 _atom_site_label
 _atom_site_symmetry_multiplicity
 _atom_site_fract_x
 _atom_site_fract_y
 _atom_site_fract_z
 _atom_site_occupancy
  B  B0  1  0.970877  0.154218  0.475691  1
  B  B1  1  0.029123  0.845782  0.524309  1
  B  B2  1  0.178527  0.495186  0.024309  1
  B  B3  1  0.821473  0.504814  0.975691  1
  Ni  Ni4  1  0.667710  0.720649  0.199785  1
  Ni  Ni5  1  0.332290  0.279351  0.800215  1
  Ni  Ni6  1  0.020864  0.467926  0.300215  1
  Ni  Ni7  1  0.979136  0.532074  0.699785  1
  Tb  Tb8  1  0.631892  0.881892  0.750000  1
  Tb  Tb9  1  0.368108  0.118108  0.250000  1
