# generated using pymatgen
data_TbTaO4
_symmetry_space_group_name_H-M   'P 1'
_cell_length_a   5.12329746
_cell_length_b   5.38118156
_cell_length_c   6.58881791
_cell_angle_alpha   111.95798684
_cell_angle_beta   110.64547513
_cell_angle_gamma   95.08603519
_symmetry_Int_Tables_number   1
_chemical_formula_structural   TbTaO4
_chemical_formula_sum   'Tb2 Ta2 O8'
_cell_volume   152.48065076
_cell_formula_units_Z   2
loop_
 _symmetry_equiv_pos_site_id
 _symmetry_equiv_pos_as_xyz
  1  'x, y, z'
loop_
 _atom_site_type_symbol
 _atom_site_label
 _atom_site_symmetry_multiplicity
 _atom_site_fract_x
 _atom_site_fract_y
 _atom_site_fract_z
 _atom_site_occupancy
  Tb  Tb0  1  0.380382  0.630386  0.760734  1
  Tb  Tb1  1  0.619618  0.369614  0.239266  1
  Ta  Ta2  1  0.146373  0.896344  0.292757  1
  Ta  Ta3  1  0.853627  0.103656  0.707243  1
  O  O4  1  0.569770  0.276298  0.563610  1
  O  O5  1  0.793109  0.631995  0.080508  1
  O  O6  1  0.430231  0.723702  0.436390  1
  O  O7  1  0.712642  0.051534  0.919491  1
  O  O8  1  0.993819  0.787330  0.563638  1
  O  O9  1  0.287358  0.948466  0.080509  1
  O  O10  1  0.206891  0.368005  0.919492  1
  O  O11  1  0.006181  0.212670  0.436362  1
