# generated using pymatgen
data_TbVO4
_symmetry_space_group_name_H-M   'P 1'
_cell_length_a   6.03195080
_cell_length_b   6.03195081
_cell_length_c   6.03195080
_cell_angle_alpha   106.20131871
_cell_angle_beta   106.20131871
_cell_angle_gamma   116.22987147
_symmetry_Int_Tables_number   1
_chemical_formula_structural   TbVO4
_chemical_formula_sum   'Tb2 V2 O8'
_cell_volume   167.16411696
_cell_formula_units_Z   2
loop_
 _symmetry_equiv_pos_site_id
 _symmetry_equiv_pos_as_xyz
  1  'x, y, z'
loop_
 _atom_site_type_symbol
 _atom_site_label
 _atom_site_symmetry_multiplicity
 _atom_site_fract_x
 _atom_site_fract_y
 _atom_site_fract_z
 _atom_site_occupancy
  O  O0  1  0.800492  0.734597  0.434105  1
  O  O1  1  0.366388  0.800492  0.565895  1
  O  O2  1  0.734597  0.800492  0.934105  1
  O  O3  1  0.800492  0.366388  0.065895  1
  O  O4  1  0.633612  0.199508  0.434105  1
  O  O5  1  0.199508  0.265403  0.565895  1
  O  O6  1  0.199508  0.633612  0.934105  1
  O  O7  1  0.265403  0.199508  0.065895  1
  V  V8  1  0.375000  0.625000  0.750000  1
  V  V9  1  0.625000  0.375000  0.250000  1
  Tb  Tb10  1  0.125000  0.875000  0.250000  1
  Tb  Tb11  1  0.875000  0.125000  0.750000  1
