# generated using pymatgen
data_Tb2Zr8O19
_symmetry_space_group_name_H-M   'P 1'
_cell_length_a   3.64772743
_cell_length_b   36.46208677
_cell_length_c   34.78118115
_cell_angle_alpha   5.21038439
_cell_angle_beta   58.37332801
_cell_angle_gamma   59.98622103
_symmetry_Int_Tables_number   1
_chemical_formula_structural   Tb2Zr8O19
_chemical_formula_sum   'Tb2 Zr8 O19'
_cell_volume   342.91799969
_cell_formula_units_Z   1
loop_
 _symmetry_equiv_pos_site_id
 _symmetry_equiv_pos_as_xyz
  1  'x, y, z'
loop_
 _atom_site_type_symbol
 _atom_site_label
 _atom_site_symmetry_multiplicity
 _atom_site_fract_x
 _atom_site_fract_y
 _atom_site_fract_z
 _atom_site_occupancy
  Tb  Tb0  1  0.032741  0.826193  0.967259  1
  Tb  Tb1  1  0.967259  0.873807  0.032741  1
  Zr  Zr2  1  0.984356  0.987485  0.015644  1
  Zr  Zr3  1  0.989232  0.091385  0.010768  1
  Zr  Zr4  1  0.993855  0.195084  0.006145  1
  Zr  Zr5  1  0.998124  0.298499  0.001876  1
  Zr  Zr6  1  0.001876  0.401501  0.998124  1
  Zr  Zr7  1  0.006145  0.504916  0.993855  1
  Zr  Zr8  1  0.010768  0.608615  0.989232  1
  Zr  Zr9  1  0.015644  0.712515  0.984356  1
  O  O10  1  0.258203  0.006562  0.241797  1
  O  O11  1  0.250000  0.100000  0.250000  1
  O  O12  1  0.241797  0.193438  0.258203  1
  O  O13  1  0.277664  0.322131  0.222336  1
  O  O14  1  0.236787  0.389430  0.263213  1
  O  O15  1  0.296863  0.537490  0.203137  1
  O  O16  1  0.750000  0.100000  0.750000  1
  O  O17  1  0.203137  0.662510  0.296863  1
  O  O18  1  0.759542  0.207634  0.740458  1
  O  O19  1  0.263213  0.810570  0.236787  1
  O  O20  1  0.711983  0.269586  0.788017  1
  O  O21  1  0.222336  0.877869  0.277664  1
  O  O22  1  0.762256  0.409805  0.737744  1
  O  O23  1  0.735333  0.488266  0.764667  1
  O  O24  1  0.750000  0.600000  0.750000  1
  O  O25  1  0.764667  0.711734  0.735333  1
  O  O26  1  0.737744  0.790195  0.762256  1
  O  O27  1  0.788017  0.930414  0.711983  1
  O  O28  1  0.740458  0.992366  0.759542  1
