# generated using pymatgen
data_TbB4Ru
_symmetry_space_group_name_H-M   'P 1'
_cell_length_a   5.97629280
_cell_length_b   11.55952106
_cell_length_c   3.56963633
_cell_angle_alpha   89.99995697
_cell_angle_beta   90.00006883
_cell_angle_gamma   90.00106525
_symmetry_Int_Tables_number   1
_chemical_formula_structural   TbB4Ru
_chemical_formula_sum   'Tb4 B16 Ru4'
_cell_volume   246.60148100
_cell_formula_units_Z   4
loop_
 _symmetry_equiv_pos_site_id
 _symmetry_equiv_pos_as_xyz
  1  'x, y, z'
loop_
 _atom_site_type_symbol
 _atom_site_label
 _atom_site_symmetry_multiplicity
 _atom_site_fract_x
 _atom_site_fract_y
 _atom_site_fract_z
 _atom_site_occupancy
  Tb  Tb0  1  0.128736  0.149966  0.999999  1
  Tb  Tb1  1  0.871277  0.850043  0.000002  1
  Tb  Tb2  1  0.628720  0.350039  1.000000  1
  Tb  Tb3  1  0.371260  0.649971  1.000000  1
  B  B4  1  0.475937  0.191508  0.499999  1
  B  B5  1  0.524055  0.808487  0.500000  1
  B  B6  1  0.975942  0.308488  0.500000  1
  B  B7  1  0.024068  0.691519  0.500000  1
  B  B8  1  0.288810  0.314692  0.500000  1
  B  B9  1  0.711190  0.685311  0.500000  1
  B  B10  1  0.788807  0.185302  0.500000  1
  B  B11  1  0.211193  0.814692  0.500001  1
  B  B12  1  0.363721  0.469449  0.500000  1
  B  B13  1  0.636274  0.530546  0.500000  1
  B  B14  1  0.863726  0.030548  0.500000  1
  B  B15  1  0.136281  0.969451  0.500000  1
  B  B16  1  0.388140  0.046555  0.500001  1
  B  B17  1  0.611857  0.953443  0.500000  1
  B  B18  1  0.888145  0.453440  0.500001  1
  B  B19  1  0.111863  0.546555  0.500001  1
  Ru  Ru20  1  0.139437  0.407746  0.999997  1
  Ru  Ru21  1  0.860552  0.592253  0.000001  1
  Ru  Ru22  1  0.639448  0.092253  0.000000  1
  Ru  Ru23  1  0.360562  0.907752  0.000001  1
