# generated using pymatgen
data_Tb2Mo2O7
_symmetry_space_group_name_H-M   'P 1'
_cell_length_a   7.37767230
_cell_length_b   7.37767229
_cell_length_c   7.37767229
_cell_angle_alpha   59.99999996
_cell_angle_beta   59.99999999
_cell_angle_gamma   59.99999999
_symmetry_Int_Tables_number   1
_chemical_formula_structural   Tb2Mo2O7
_chemical_formula_sum   'Tb4 Mo4 O14'
_cell_volume   283.95079147
_cell_formula_units_Z   2
loop_
 _symmetry_equiv_pos_site_id
 _symmetry_equiv_pos_as_xyz
  1  'x, y, z'
loop_
 _atom_site_type_symbol
 _atom_site_label
 _atom_site_symmetry_multiplicity
 _atom_site_fract_x
 _atom_site_fract_y
 _atom_site_fract_z
 _atom_site_occupancy
  O  O0  1  0.625000  0.625000  0.625000  1
  O  O1  1  0.375000  0.375000  0.375000  1
  O  O2  1  0.338039  0.911961  0.911961  1
  O  O3  1  0.088039  0.661961  0.661961  1
  O  O4  1  0.911961  0.338039  0.911961  1
  O  O5  1  0.911961  0.911961  0.338039  1
  O  O6  1  0.338039  0.338039  0.911961  1
  O  O7  1  0.338039  0.911961  0.338039  1
  O  O8  1  0.911961  0.338039  0.338039  1
  O  O9  1  0.661961  0.661961  0.088039  1
  O  O10  1  0.088039  0.088039  0.661961  1
  O  O11  1  0.661961  0.088039  0.088039  1
  O  O12  1  0.661961  0.088039  0.661961  1
  O  O13  1  0.088039  0.661961  0.088039  1
  Mo  Mo14  1  0.000000  0.500000  0.000000  1
  Mo  Mo15  1  0.500000  0.000000  0.000000  1
  Mo  Mo16  1  0.000000  0.000000  0.500000  1
  Mo  Mo17  1  0.000000  0.000000  0.000000  1
  Tb  Tb18  1  0.500000  0.000000  0.500000  1
  Tb  Tb19  1  0.000000  0.500000  0.500000  1
  Tb  Tb20  1  0.500000  0.500000  0.000000  1
  Tb  Tb21  1  0.500000  0.500000  0.500000  1
