# generated using pymatgen
data_TbNbO4
_symmetry_space_group_name_H-M   'P 1'
_cell_length_a   7.61189279
_cell_length_b   5.38651337
_cell_length_c   7.67322801
_cell_angle_alpha   90.00000000
_cell_angle_beta   98.43093421
_cell_angle_gamma   90.00000000
_symmetry_Int_Tables_number   1
_chemical_formula_structural   TbNbO4
_chemical_formula_sum   'Tb4 Nb4 O16'
_cell_volume   311.21439915
_cell_formula_units_Z   4
loop_
 _symmetry_equiv_pos_site_id
 _symmetry_equiv_pos_as_xyz
  1  'x, y, z'
loop_
 _atom_site_type_symbol
 _atom_site_label
 _atom_site_symmetry_multiplicity
 _atom_site_fract_x
 _atom_site_fract_y
 _atom_site_fract_z
 _atom_site_occupancy
  Tb  Tb0  1  0.354582  0.720062  0.608815  1
  Tb  Tb1  1  0.354582  0.779938  0.108815  1
  Tb  Tb2  1  0.645418  0.220062  0.891185  1
  Tb  Tb3  1  0.645418  0.279938  0.391185  1
  Nb  Nb4  1  0.164873  0.232248  0.811258  1
  Nb  Nb5  1  0.164873  0.267752  0.311258  1
  Nb  Nb6  1  0.835127  0.732248  0.688742  1
  Nb  Nb7  1  0.835127  0.767752  0.188742  1
  O  O8  1  0.066071  0.897475  0.689338  1
  O  O9  1  0.066071  0.602525  0.189338  1
  O  O10  1  0.172241  0.372308  0.562128  1
  O  O11  1  0.172241  0.127692  0.062128  1
  O  O12  1  0.327980  0.500335  0.880005  1
  O  O13  1  0.390282  0.009101  0.828208  1
  O  O14  1  0.327980  0.999665  0.380005  1
  O  O15  1  0.390282  0.490899  0.328208  1
  O  O16  1  0.609718  0.509101  0.671792  1
  O  O17  1  0.672020  0.000335  0.619995  1
  O  O18  1  0.609718  0.990899  0.171792  1
  O  O19  1  0.672020  0.499665  0.119995  1
  O  O20  1  0.827759  0.872308  0.937872  1
  O  O21  1  0.827759  0.627692  0.437872  1
  O  O22  1  0.933929  0.397475  0.810662  1
  O  O23  1  0.933929  0.102525  0.310662  1
