# generated using pymatgen
data_TbNiO3
_symmetry_space_group_name_H-M   'P 1'
_cell_length_a   5.22615586
_cell_length_b   5.57849266
_cell_length_c   7.49186281
_cell_angle_alpha   90.00000000
_cell_angle_beta   90.15337421
_cell_angle_gamma   90.00000000
_symmetry_Int_Tables_number   1
_chemical_formula_structural   TbNiO3
_chemical_formula_sum   'Tb4 Ni4 O12'
_cell_volume   218.41752609
_cell_formula_units_Z   4
loop_
 _symmetry_equiv_pos_site_id
 _symmetry_equiv_pos_as_xyz
  1  'x, y, z'
loop_
 _atom_site_type_symbol
 _atom_site_label
 _atom_site_symmetry_multiplicity
 _atom_site_fract_x
 _atom_site_fract_y
 _atom_site_fract_z
 _atom_site_occupancy
  Tb  Tb0  1  0.019576  0.926167  0.749646  1
  Tb  Tb1  1  0.480424  0.426167  0.750354  1
  Tb  Tb2  1  0.519576  0.573833  0.249646  1
  Tb  Tb3  1  0.980424  0.073833  0.250354  1
  Ni  Ni4  1  0.000000  0.500000  0.500000  1
  Ni  Ni5  1  0.000000  0.500000  0.000000  1
  Ni  Ni6  1  0.500000  0.000000  0.500000  1
  Ni  Ni7  1  0.500000  0.000000  0.000000  1
  O  O8  1  0.099777  0.471410  0.248064  1
  O  O9  1  0.193505  0.199774  0.949093  1
  O  O10  1  0.196471  0.195794  0.549450  1
  O  O11  1  0.303529  0.695794  0.950550  1
  O  O12  1  0.306495  0.699774  0.550907  1
  O  O13  1  0.400223  0.971410  0.251936  1
  O  O14  1  0.599777  0.028590  0.748064  1
  O  O15  1  0.693505  0.300226  0.449093  1
  O  O16  1  0.696471  0.304206  0.049450  1
  O  O17  1  0.803529  0.804206  0.450550  1
  O  O18  1  0.806495  0.800226  0.050907  1
  O  O19  1  0.900223  0.528590  0.751936  1
