# generated using pymatgen
data_Tb2Pt2O7
_symmetry_space_group_name_H-M   'P 1'
_cell_length_a   7.29406608
_cell_length_b   7.29406608
_cell_length_c   7.29406608
_cell_angle_alpha   60.00000000
_cell_angle_beta   90.00000000
_cell_angle_gamma   120.00000000
_symmetry_Int_Tables_number   1
_chemical_formula_structural   Tb2Pt2O7
_chemical_formula_sum   'Tb4 Pt4 O14'
_cell_volume   274.40630326
_cell_formula_units_Z   2
loop_
 _symmetry_equiv_pos_site_id
 _symmetry_equiv_pos_as_xyz
  1  'x, y, z'
loop_
 _atom_site_type_symbol
 _atom_site_label
 _atom_site_symmetry_multiplicity
 _atom_site_fract_x
 _atom_site_fract_y
 _atom_site_fract_z
 _atom_site_occupancy
  Tb  Tb0  1  0.500000  0.000000  0.000000  1
  Tb  Tb1  1  0.500000  0.000000  0.500000  1
  Tb  Tb2  1  0.500000  0.500000  0.500000  1
  Tb  Tb3  1  0.000000  0.500000  0.500000  1
  Pt  Pt4  1  0.000000  0.000000  0.000000  1
  Pt  Pt5  1  0.500000  0.500000  0.000000  1
  Pt  Pt6  1  0.000000  0.500000  0.000000  1
  Pt  Pt7  1  0.000000  0.000000  0.500000  1
  O  O8  1  0.909591  0.250000  0.340409  1
  O  O9  1  0.659591  0.319182  0.090409  1
  O  O10  1  0.659591  0.750000  0.090409  1
  O  O11  1  0.340409  0.250000  0.340409  1
  O  O12  1  0.909591  0.250000  0.909591  1
  O  O13  1  0.625000  0.250000  0.625000  1
  O  O14  1  0.909591  0.819182  0.340409  1
  O  O15  1  0.090409  0.750000  0.090409  1
  O  O16  1  0.090409  0.180818  0.659591  1
  O  O17  1  0.375000  0.750000  0.375000  1
  O  O18  1  0.659591  0.750000  0.659591  1
  O  O19  1  0.340409  0.250000  0.909591  1
  O  O20  1  0.340409  0.680818  0.909591  1
  O  O21  1  0.090409  0.750000  0.659591  1
