# generated using pymatgen
data_TbVB4
_symmetry_space_group_name_H-M   'P 1'
_cell_length_a   6.02229686
_cell_length_b   11.65873404
_cell_length_c   3.45450312
_cell_angle_alpha   90.00000000
_cell_angle_beta   90.00000000
_cell_angle_gamma   90.00000000
_symmetry_Int_Tables_number   1
_chemical_formula_structural   TbVB4
_chemical_formula_sum   'Tb4 V4 B16'
_cell_volume   242.54880770
_cell_formula_units_Z   4
loop_
 _symmetry_equiv_pos_site_id
 _symmetry_equiv_pos_as_xyz
  1  'x, y, z'
loop_
 _atom_site_type_symbol
 _atom_site_label
 _atom_site_symmetry_multiplicity
 _atom_site_fract_x
 _atom_site_fract_y
 _atom_site_fract_z
 _atom_site_occupancy
  Tb  Tb0  1  0.123968  0.151439  0.000000  1
  Tb  Tb1  1  0.876033  0.848561  0.000000  1
  Tb  Tb2  1  0.623968  0.348561  0.000000  1
  Tb  Tb3  1  0.376033  0.651439  0.000000  1
  V  V4  1  0.127197  0.416936  0.000000  1
  V  V5  1  0.872802  0.583064  0.000000  1
  V  V6  1  0.627197  0.083065  0.000000  1
  V  V7  1  0.372803  0.916936  0.000000  1
  B  B8  1  0.477003  0.191706  0.499999  1
  B  B9  1  0.522999  0.808293  0.499999  1
  B  B10  1  0.977001  0.308293  0.499999  1
  B  B11  1  0.022997  0.691707  0.499999  1
  B  B12  1  0.285252  0.314619  0.499999  1
  B  B13  1  0.714748  0.685381  0.499999  1
  B  B14  1  0.785252  0.185381  0.499999  1
  B  B15  1  0.214750  0.814619  0.499999  1
  B  B16  1  0.363638  0.467379  0.499999  1
  B  B17  1  0.636361  0.532621  0.499999  1
  B  B18  1  0.863639  0.032621  0.499999  1
  B  B19  1  0.136362  0.967379  0.499999  1
  B  B20  1  0.385703  0.047192  0.499999  1
  B  B21  1  0.614297  0.952808  0.499999  1
  B  B22  1  0.885703  0.452808  0.499999  1
  B  B23  1  0.114299  0.547192  0.499999  1
