# generated using pymatgen
data_Tb2WO6
_symmetry_space_group_name_H-M   'P 1'
_cell_length_a   5.65900121
_cell_length_b   5.42258667
_cell_length_c   8.26117300
_cell_angle_alpha   90.02321735
_cell_angle_beta   95.39127520
_cell_angle_gamma   90.07846186
_symmetry_Int_Tables_number   1
_chemical_formula_structural   Tb2WO6
_chemical_formula_sum   'Tb4 W2 O12'
_cell_volume   252.38415079
_cell_formula_units_Z   2
loop_
 _symmetry_equiv_pos_site_id
 _symmetry_equiv_pos_as_xyz
  1  'x, y, z'
loop_
 _atom_site_type_symbol
 _atom_site_label
 _atom_site_symmetry_multiplicity
 _atom_site_fract_x
 _atom_site_fract_y
 _atom_site_fract_z
 _atom_site_occupancy
  Tb  Tb0  1  0.244331  0.534821  0.366560  1
  Tb  Tb1  1  0.273860  0.035004  0.635671  1
  Tb  Tb2  1  0.746761  0.977390  0.366036  1
  Tb  Tb3  1  0.771614  0.477628  0.636415  1
  W  W4  1  -0.000097  0.935632  0.978890  1
  W  W5  1  0.519963  0.434353  0.023453  1
  O  O6  1  0.048938  0.844503  0.197120  1
  O  O7  1  0.260285  0.791517  0.901855  1
  O  O8  1  0.010612  0.259720  0.477471  1
  O  O9  1  0.507591  0.759709  0.524954  1
  O  O10  1  0.258898  0.289106  0.100026  1
  O  O11  1  0.469861  0.344820  0.805534  1
  O  O12  1  0.553433  0.670271  0.189680  1
  O  O13  1  0.773069  0.697887  0.906613  1
  O  O14  1  0.510638  0.254554  0.474156  1
  O  O15  1  0.746540  0.197899  0.096402  1
  O  O16  1  0.007555  0.754485  0.527837  1
  O  O17  1  0.964550  0.170800  0.812838  1
