# generated using pymatgen
data_Tb2(WO4)3
_symmetry_space_group_name_H-M   'P 1'
_cell_length_a   6.96114502
_cell_length_b   6.95578316
_cell_length_c   11.47165766
_cell_angle_alpha   78.89736223
_cell_angle_beta   100.97450006
_cell_angle_gamma   68.02683260
_symmetry_Int_Tables_number   1
_chemical_formula_structural   Tb2(WO4)3
_chemical_formula_sum   'Tb4 W6 O24'
_cell_volume   483.99595739
_cell_formula_units_Z   2
loop_
 _symmetry_equiv_pos_site_id
 _symmetry_equiv_pos_as_xyz
  1  'x, y, z'
loop_
 _atom_site_type_symbol
 _atom_site_label
 _atom_site_symmetry_multiplicity
 _atom_site_fract_x
 _atom_site_fract_y
 _atom_site_fract_z
 _atom_site_occupancy
  Tb  Tb0  1  0.304849  0.947716  0.593676  1
  Tb  Tb1  1  0.050968  0.694777  0.093131  1
  Tb  Tb2  1  0.948637  0.305896  0.905449  1
  Tb  Tb3  1  0.693584  0.051604  0.406033  1
  W  W4  1  0.492147  0.794427  0.951399  1
  W  W5  1  0.204084  0.507990  0.451892  1
  W  W6  1  0.878947  0.884984  0.749017  1
  W  W7  1  0.115862  0.118001  0.248812  1
  W  W8  1  0.796534  0.491835  0.548536  1
  W  W9  1  0.507286  0.202645  0.047742  1
  O  O10  1  0.347939  0.793901  0.800210  1
  O  O11  1  0.590242  0.988762  0.721878  1
  O  O12  1  0.973255  0.946798  0.892745  1
  O  O13  1  0.331254  0.604822  0.562399  1
  O  O14  1  0.780094  0.615949  0.963063  1
  O  O15  1  0.102224  0.319816  0.574191  1
  O  O16  1  0.197996  0.655870  0.299512  1
  O  O17  1  0.321772  0.101186  0.924020  1
  O  O18  1  0.620265  0.779673  0.539275  1
  O  O19  1  0.606719  0.327094  0.937750  1
  O  O20  1  0.943354  0.976699  0.605223  1
  O  O21  1  0.011700  0.407156  0.219650  1
  O  O22  1  0.987008  0.595628  0.778925  1
  O  O23  1  0.051340  0.027908  0.392846  1
  O  O24  1  0.393116  0.670556  0.062582  1
  O  O25  1  0.381745  0.220861  0.461891  1
  O  O26  1  0.678137  0.896356  0.074498  1
  O  O27  1  0.798939  0.344756  0.700225  1
  O  O28  1  0.898923  0.679619  0.427254  1
  O  O29  1  0.219796  0.381829  0.036732  1
  O  O30  1  0.668739  0.397625  0.437094  1
  O  O31  1  0.026778  0.054312  0.104419  1
  O  O32  1  0.404687  0.012282  0.279205  1
  O  O33  1  0.653653  0.200795  0.199192  1
