# generated using pymatgen
data_Cr3(CuO6)2
_symmetry_space_group_name_H-M   'P 1'
_cell_length_a   12.24541038
_cell_length_b   8.97761876
_cell_length_c   8.87793180
_cell_angle_alpha   90.00000000
_cell_angle_beta   90.00000000
_cell_angle_gamma   90.00000000
_symmetry_Int_Tables_number   1
_chemical_formula_structural   Cr3(CuO6)2
_chemical_formula_sum   'Cr12 Cu8 O48'
_cell_volume   975.99211165
_cell_formula_units_Z   4
loop_
 _symmetry_equiv_pos_site_id
 _symmetry_equiv_pos_as_xyz
  1  'x, y, z'
loop_
 _atom_site_type_symbol
 _atom_site_label
 _atom_site_symmetry_multiplicity
 _atom_site_fract_x
 _atom_site_fract_y
 _atom_site_fract_z
 _atom_site_occupancy
  Cr  Cr0  1  0.000000  0.461926  0.250000  1
  Cr  Cr1  1  0.000000  0.538075  0.750000  1
  Cr  Cr2  1  0.144826  0.100144  0.605821  1
  Cr  Cr3  1  0.144826  0.899856  0.105821  1
  Cr  Cr4  1  0.355174  0.399856  0.105821  1
  Cr  Cr5  1  0.355174  0.600144  0.605821  1
  Cr  Cr6  1  0.500000  0.038074  0.750000  1
  Cr  Cr7  1  0.500000  0.961925  0.250000  1
  Cr  Cr8  1  0.644826  0.399856  0.394179  1
  Cr  Cr9  1  0.644826  0.600144  0.894179  1
  Cr  Cr10  1  0.855174  0.100144  0.894179  1
  Cr  Cr11  1  0.855174  0.899856  0.394179  1
  Cu  Cu12  1  0.122088  0.250237  0.970454  1
  Cu  Cu13  1  0.122088  0.749763  0.470454  1
  Cu  Cu14  1  0.377912  0.249763  0.470454  1
  Cu  Cu15  1  0.377912  0.750237  0.970454  1
  Cu  Cu16  1  0.622088  0.249763  0.029546  1
  Cu  Cu17  1  0.622088  0.750237  0.529546  1
  Cu  Cu18  1  0.877912  0.250237  0.529546  1
  Cu  Cu19  1  0.877912  0.749763  0.029546  1
  O  O20  1  0.016689  0.144650  0.565381  1
  O  O21  1  0.016689  0.855350  0.065381  1
  O  O22  1  0.068477  0.566610  0.371088  1
  O  O23  1  0.068477  0.433390  0.871088  1
  O  O24  1  0.091933  0.354406  0.162656  1
  O  O25  1  0.091933  0.645594  0.662656  1
  O  O26  1  0.163408  0.085107  0.105453  1
  O  O27  1  0.163408  0.914893  0.605453  1
  O  O28  1  0.177176  0.159455  0.776996  1
  O  O29  1  0.177176  0.840545  0.276996  1
  O  O30  1  0.225421  0.175914  0.475236  1
  O  O31  1  0.225421  0.824086  0.975236  1
  O  O32  1  0.274579  0.324086  0.975236  1
  O  O33  1  0.274579  0.675914  0.475236  1
  O  O34  1  0.322824  0.659455  0.776996  1
  O  O35  1  0.322824  0.340545  0.276996  1
  O  O36  1  0.336592  0.414893  0.605453  1
  O  O37  1  0.336592  0.585107  0.105453  1
  O  O38  1  0.408067  0.145594  0.662656  1
  O  O39  1  0.408067  0.854406  0.162656  1
  O  O40  1  0.431523  0.066610  0.371088  1
  O  O41  1  0.431523  0.933390  0.871088  1
  O  O42  1  0.483311  0.644650  0.565381  1
  O  O43  1  0.483311  0.355350  0.065381  1
  O  O44  1  0.516689  0.355350  0.434619  1
  O  O45  1  0.516689  0.644650  0.934619  1
  O  O46  1  0.568477  0.066610  0.128912  1
  O  O47  1  0.568477  0.933390  0.628912  1
  O  O48  1  0.591933  0.145594  0.837344  1
  O  O49  1  0.591933  0.854406  0.337344  1
  O  O50  1  0.663408  0.414893  0.894547  1
  O  O51  1  0.663408  0.585107  0.394547  1
  O  O52  1  0.677176  0.340545  0.223004  1
  O  O53  1  0.677176  0.659455  0.723004  1
  O  O54  1  0.725421  0.324086  0.524764  1
  O  O55  1  0.725421  0.675914  0.024764  1
  O  O56  1  0.774579  0.175914  0.024764  1
  O  O57  1  0.774579  0.824086  0.524764  1
  O  O58  1  0.822824  0.159455  0.723004  1
  O  O59  1  0.822824  0.840545  0.223004  1
  O  O60  1  0.836592  0.085107  0.394547  1
  O  O61  1  0.836592  0.914893  0.894547  1
  O  O62  1  0.908067  0.354406  0.337344  1
  O  O63  1  0.908067  0.645594  0.837344  1
  O  O64  1  0.931523  0.433390  0.628912  1
  O  O65  1  0.931523  0.566610  0.128912  1
  O  O66  1  0.983311  0.144650  0.934619  1
  O  O67  1  0.983311  0.855350  0.434619  1
