# generated using pymatgen
data_Tb4CoB13
_symmetry_space_group_name_H-M   'P 1'
_cell_length_a   7.33844780
_cell_length_b   7.33844780
_cell_length_c   6.94485764
_cell_angle_alpha   90.00000000
_cell_angle_beta   90.00000000
_cell_angle_gamma   90.00000000
_symmetry_Int_Tables_number   1
_chemical_formula_structural   Tb4CoB13
_chemical_formula_sum   'Tb8 Co2 B26'
_cell_volume   374.00014142
_cell_formula_units_Z   2
loop_
 _symmetry_equiv_pos_site_id
 _symmetry_equiv_pos_as_xyz
  1  'x, y, z'
loop_
 _atom_site_type_symbol
 _atom_site_label
 _atom_site_symmetry_multiplicity
 _atom_site_fract_x
 _atom_site_fract_y
 _atom_site_fract_z
 _atom_site_occupancy
  B  B0  1  0.669302  0.539384  0.753994  1
  B  B1  1  0.330698  0.460616  0.753994  1
  B  B2  1  0.039384  0.169302  0.746006  1
  B  B3  1  0.539384  0.330698  0.753994  1
  B  B4  1  0.460616  0.669302  0.753994  1
  B  B5  1  0.830698  0.039384  0.746006  1
  B  B6  1  0.169302  0.960616  0.746006  1
  B  B7  1  0.960616  0.830698  0.746006  1
  B  B8  1  0.330698  0.460616  0.246006  1
  B  B9  1  0.669302  0.539384  0.246006  1
  B  B10  1  0.000000  0.000000  0.500000  1
  B  B11  1  0.500000  0.500000  0.000000  1
  B  B12  1  0.408720  0.908720  0.250000  1
  B  B13  1  0.091280  0.408720  0.250000  1
  B  B14  1  0.908720  0.591280  0.250000  1
  B  B15  1  0.591280  0.091280  0.250000  1
  B  B16  1  0.591280  0.091280  0.750000  1
  B  B17  1  0.908720  0.591280  0.750000  1
  B  B18  1  0.091280  0.408720  0.750000  1
  B  B19  1  0.408720  0.908720  0.750000  1
  B  B20  1  0.039384  0.169302  0.253994  1
  B  B21  1  0.830698  0.039384  0.253994  1
  B  B22  1  0.169302  0.960616  0.253994  1
  B  B23  1  0.539384  0.330698  0.246006  1
  B  B24  1  0.460616  0.669302  0.246006  1
  B  B25  1  0.960616  0.830698  0.253994  1
  Co  Co26  1  0.000000  0.000000  0.000000  1
  Co  Co27  1  0.500000  0.500000  0.500000  1
  Tb  Tb28  1  0.815566  0.318737  0.000000  1
  Tb  Tb29  1  0.315566  0.181263  0.500000  1
  Tb  Tb30  1  0.684434  0.818737  0.500000  1
  Tb  Tb31  1  0.681263  0.815566  0.000000  1
  Tb  Tb32  1  0.318737  0.184434  0.000000  1
  Tb  Tb33  1  0.184434  0.681263  0.000000  1
  Tb  Tb34  1  0.181263  0.684434  0.500000  1
  Tb  Tb35  1  0.818737  0.315566  0.500000  1
