# generated using pymatgen
data_TbCu(MoO4)2
_symmetry_space_group_name_H-M   'P 1'
_cell_length_a   9.90519118
_cell_length_b   10.30957984
_cell_length_c   14.75352025
_cell_angle_alpha   90.00000000
_cell_angle_beta   90.00000000
_cell_angle_gamma   90.00000000
_symmetry_Int_Tables_number   1
_chemical_formula_structural   TbCu(MoO4)2
_chemical_formula_sum   'Tb8 Cu8 Mo16 O64'
_cell_volume   1506.60528184
_cell_formula_units_Z   8
loop_
 _symmetry_equiv_pos_site_id
 _symmetry_equiv_pos_as_xyz
  1  'x, y, z'
loop_
 _atom_site_type_symbol
 _atom_site_label
 _atom_site_symmetry_multiplicity
 _atom_site_fract_x
 _atom_site_fract_y
 _atom_site_fract_z
 _atom_site_occupancy
  Tb  Tb0  1  0.778480  0.034487  0.103905  1
  Tb  Tb1  1  0.778480  0.534487  0.396095  1
  Tb  Tb2  1  0.278480  0.465513  0.103905  1
  Tb  Tb3  1  0.721520  0.034487  0.603905  1
  Tb  Tb4  1  0.221520  0.965513  0.896095  1
  Tb  Tb5  1  0.221520  0.465513  0.603905  1
  Tb  Tb6  1  0.721520  0.534487  0.896095  1
  Tb  Tb7  1  0.278480  0.965513  0.396095  1
  Cu  Cu8  1  0.188838  0.316881  0.802817  1
  Cu  Cu9  1  0.688838  0.683119  0.697183  1
  Cu  Cu10  1  0.311162  0.816881  0.197183  1
  Cu  Cu11  1  0.811162  0.183119  0.302817  1
  Cu  Cu12  1  0.811162  0.683119  0.197183  1
  Cu  Cu13  1  0.311162  0.316881  0.302817  1
  Cu  Cu14  1  0.688838  0.183119  0.802817  1
  Cu  Cu15  1  0.188838  0.816881  0.697183  1
  Mo  Mo16  1  0.668017  0.897154  0.346933  1
  Mo  Mo17  1  0.000925  0.780796  0.556972  1
  Mo  Mo18  1  0.500925  0.219204  0.943028  1
  Mo  Mo19  1  0.499075  0.280796  0.443028  1
  Mo  Mo20  1  0.999075  0.719204  0.056972  1
  Mo  Mo21  1  0.999075  0.219204  0.443028  1
  Mo  Mo22  1  0.499075  0.780796  0.056972  1
  Mo  Mo23  1  0.500925  0.719204  0.556972  1
  Mo  Mo24  1  0.000925  0.280796  0.943028  1
  Mo  Mo25  1  0.168017  0.102846  0.153067  1
  Mo  Mo26  1  0.831983  0.397154  0.653067  1
  Mo  Mo27  1  0.331983  0.602846  0.846933  1
  Mo  Mo28  1  0.668017  0.397154  0.153067  1
  Mo  Mo29  1  0.831983  0.897154  0.846933  1
  Mo  Mo30  1  0.168017  0.602846  0.346933  1
  Mo  Mo31  1  0.331983  0.102846  0.653067  1
  O  O32  1  0.106843  0.329110  0.502088  1
  O  O33  1  0.606843  0.670890  0.997912  1
  O  O34  1  0.393157  0.829110  0.497912  1
  O  O35  1  0.893157  0.170890  0.002087  1
  O  O36  1  0.893157  0.670890  0.497912  1
  O  O37  1  0.393157  0.329110  0.002087  1
  O  O38  1  0.606843  0.170890  0.502088  1
  O  O39  1  0.106843  0.829110  0.997912  1
  O  O40  1  0.243728  0.988781  0.728251  1
  O  O41  1  0.743727  0.011219  0.771749  1
  O  O42  1  0.256273  0.488781  0.271749  1
  O  O43  1  0.756273  0.511219  0.228251  1
  O  O44  1  0.756273  0.011219  0.271749  1
  O  O45  1  0.256273  0.988781  0.228251  1
  O  O46  1  0.743727  0.511219  0.728251  1
  O  O47  1  0.243728  0.488781  0.771749  1
  O  O48  1  0.224461  0.765953  0.319991  1
  O  O49  1  0.724461  0.234047  0.180009  1
  O  O50  1  0.275539  0.265953  0.680009  1
  O  O51  1  0.775539  0.734047  0.819991  1
  O  O52  1  0.775539  0.234047  0.680009  1
  O  O53  1  0.275539  0.765953  0.819991  1
  O  O54  1  0.724461  0.734047  0.319991  1
  O  O55  1  0.890779  0.320419  0.367475  1
  O  O56  1  0.224461  0.265953  0.180009  1
  O  O57  1  0.293185  0.573090  0.962676  1
  O  O58  1  0.706815  0.926910  0.462676  1
  O  O59  1  0.206815  0.073090  0.037324  1
  O  O60  1  0.206815  0.573090  0.462676  1
  O  O61  1  0.706815  0.426910  0.037324  1
  O  O62  1  0.293185  0.073090  0.537324  1
  O  O63  1  0.793185  0.926910  0.962676  1
  O  O64  1  0.901050  0.629585  0.977412  1
  O  O65  1  0.401050  0.370415  0.522588  1
  O  O66  1  0.598950  0.129585  0.022588  1
  O  O67  1  0.098950  0.870415  0.477412  1
  O  O68  1  0.098950  0.370415  0.022588  1
  O  O69  1  0.598950  0.629585  0.477412  1
  O  O70  1  0.401050  0.870415  0.977412  1
  O  O71  1  0.901050  0.129585  0.522588  1
  O  O72  1  0.896902  0.387862  0.876752  1
  O  O73  1  0.396902  0.612138  0.623248  1
  O  O74  1  0.603098  0.887862  0.123248  1
  O  O75  1  0.103098  0.112138  0.376752  1
  O  O76  1  0.103098  0.612138  0.123248  1
  O  O77  1  0.603098  0.387862  0.376752  1
  O  O78  1  0.396902  0.112138  0.876752  1
  O  O79  1  0.896902  0.887862  0.623248  1
  O  O80  1  0.990266  0.088099  0.168241  1
  O  O81  1  0.490265  0.911901  0.331759  1
  O  O82  1  0.509734  0.588099  0.831759  1
  O  O83  1  0.009735  0.411901  0.668241  1
  O  O84  1  0.009735  0.911901  0.831759  1
  O  O85  1  0.509734  0.088099  0.668241  1
  O  O86  1  0.490265  0.411901  0.168241  1
  O  O87  1  0.990266  0.588099  0.331759  1
  O  O88  1  0.890779  0.820419  0.132525  1
  O  O89  1  0.390779  0.179581  0.367475  1
  O  O90  1  0.609221  0.320419  0.867475  1
  O  O91  1  0.109221  0.679581  0.632525  1
  O  O92  1  0.109221  0.179581  0.867475  1
  O  O93  1  0.609221  0.820419  0.632525  1
  O  O94  1  0.390779  0.679581  0.132525  1
  O  O95  1  0.793185  0.426910  0.537324  1
