# generated using pymatgen
data_Tb2(MoO4)3
_symmetry_space_group_name_H-M   'P 1'
_cell_length_a   10.55818750
_cell_length_b   10.56751892
_cell_length_c   10.75003486
_cell_angle_alpha   90.00000000
_cell_angle_beta   90.00000000
_cell_angle_gamma   90.00000000
_symmetry_Int_Tables_number   1
_chemical_formula_structural   Tb2(MoO4)3
_chemical_formula_sum   'Tb8 Mo12 O48'
_cell_volume   1199.42273576
_cell_formula_units_Z   4
loop_
 _symmetry_equiv_pos_site_id
 _symmetry_equiv_pos_as_xyz
  1  'x, y, z'
loop_
 _atom_site_type_symbol
 _atom_site_label
 _atom_site_symmetry_multiplicity
 _atom_site_fract_x
 _atom_site_fract_y
 _atom_site_fract_z
 _atom_site_occupancy
  O  O0  1  0.674914  0.136826  0.901393  1
  O  O1  1  0.325086  0.863174  0.901393  1
  O  O2  1  0.825086  0.636826  0.901393  1
  O  O3  1  0.174914  0.363174  0.901393  1
  O  O4  1  0.861113  0.181619  0.099696  1
  O  O5  1  0.138887  0.818381  0.099696  1
  O  O6  1  0.638887  0.681619  0.099696  1
  O  O7  1  0.361113  0.318381  0.099696  1
  O  O8  1  0.817771  0.372085  0.904622  1
  O  O9  1  0.182229  0.627915  0.904622  1
  O  O10  1  0.682229  0.872085  0.904622  1
  O  O11  1  0.317771  0.127915  0.904622  1
  O  O12  1  0.625645  0.324421  0.095289  1
  O  O13  1  0.374355  0.675579  0.095289  1
  O  O14  1  0.874355  0.824421  0.095289  1
  O  O15  1  0.125645  0.175579  0.095289  1
  O  O16  1  0.871496  0.124823  0.713217  1
  O  O17  1  0.876319  0.373875  0.294353  1
  O  O18  1  0.623681  0.873875  0.294353  1
  O  O19  1  0.376319  0.126125  0.294353  1
  O  O20  1  0.195354  0.493957  0.521874  1
  O  O21  1  0.804646  0.506043  0.521874  1
  O  O22  1  0.304646  0.993957  0.521874  1
  O  O23  1  0.695354  0.006043  0.521874  1
  O  O24  1  0.487704  0.304151  0.479273  1
  O  O25  1  0.512296  0.695849  0.479273  1
  O  O26  1  0.012296  0.804151  0.479273  1
  O  O27  1  0.987704  0.195849  0.479273  1
  O  O28  1  0.126501  0.002726  0.308755  1
  O  O29  1  0.873499  0.997274  0.308755  1
  O  O30  1  0.373499  0.502726  0.308755  1
  O  O31  1  0.626501  0.497274  0.308755  1
  O  O32  1  0.496541  0.126351  0.692402  1
  O  O33  1  0.503459  0.873649  0.692402  1
  O  O34  1  0.003459  0.626351  0.692402  1
  O  O35  1  0.996541  0.373649  0.692402  1
  O  O36  1  0.150283  0.144151  0.691895  1
  O  O37  1  0.849717  0.855849  0.691895  1
  O  O38  1  0.349717  0.644151  0.691895  1
  O  O39  1  0.650283  0.355849  0.691895  1
  O  O40  1  0.145051  0.346717  0.301392  1
  O  O41  1  0.854949  0.653283  0.301392  1
  O  O42  1  0.354949  0.846717  0.301392  1
  O  O43  1  0.645051  0.153283  0.301392  1
  O  O44  1  0.371496  0.375177  0.713217  1
  O  O45  1  0.628504  0.624823  0.713217  1
  O  O46  1  0.128504  0.875177  0.713217  1
  O  O47  1  0.123681  0.626125  0.294353  1
  Mo  Mo48  1  0.745478  0.253526  0.000280  1
  Mo  Mo49  1  0.254522  0.746474  0.000280  1
  Mo  Mo50  1  0.754522  0.753526  0.000280  1
  Mo  Mo51  1  0.245478  0.246474  0.000280  1
  Mo  Mo52  1  0.501294  0.292944  0.644255  1
  Mo  Mo53  1  0.498706  0.707056  0.644255  1
  Mo  Mo54  1  0.998706  0.792944  0.644255  1
  Mo  Mo55  1  0.001294  0.207056  0.644255  1
  Mo  Mo56  1  0.706792  0.006487  0.356473  1
  Mo  Mo57  1  0.293208  0.993513  0.356473  1
  Mo  Mo58  1  0.793208  0.506487  0.356473  1
  Mo  Mo59  1  0.206792  0.493513  0.356473  1
  Tb  Tb60  1  0.996442  0.187643  0.262765  1
  Tb  Tb61  1  0.003558  0.812357  0.262765  1
  Tb  Tb62  1  0.503558  0.687643  0.262765  1
  Tb  Tb63  1  0.496442  0.312357  0.262765  1
  Tb  Tb64  1  0.687724  0.001927  0.738076  1
  Tb  Tb65  1  0.312276  0.998073  0.738076  1
  Tb  Tb66  1  0.812276  0.501927  0.738076  1
  Tb  Tb67  1  0.187724  0.498073  0.738076  1
