# generated using pymatgen
data_Cr3(FeO6)2
_symmetry_space_group_name_H-M   'P 1'
_cell_length_a   12.52912202
_cell_length_b   9.12073277
_cell_length_c   9.01333950
_cell_angle_alpha   90.00000000
_cell_angle_beta   90.00000000
_cell_angle_gamma   90.00000000
_symmetry_Int_Tables_number   1
_chemical_formula_structural   Cr3(FeO6)2
_chemical_formula_sum   'Cr12 Fe8 O48'
_cell_volume   1029.99733243
_cell_formula_units_Z   4
loop_
 _symmetry_equiv_pos_site_id
 _symmetry_equiv_pos_as_xyz
  1  'x, y, z'
loop_
 _atom_site_type_symbol
 _atom_site_label
 _atom_site_symmetry_multiplicity
 _atom_site_fract_x
 _atom_site_fract_y
 _atom_site_fract_z
 _atom_site_occupancy
  Cr  Cr0  1  0.000000  0.462353  0.250000  1
  Cr  Cr1  1  0.000000  0.537647  0.750000  1
  Cr  Cr2  1  0.143787  0.102833  0.606213  1
  Cr  Cr3  1  0.143787  0.897166  0.106213  1
  Cr  Cr4  1  0.356213  0.397166  0.106213  1
  Cr  Cr5  1  0.356213  0.602834  0.606213  1
  Cr  Cr6  1  0.500000  0.037647  0.750000  1
  Cr  Cr7  1  0.500000  0.962353  0.250000  1
  Cr  Cr8  1  0.643787  0.397166  0.393787  1
  Cr  Cr9  1  0.643787  0.602834  0.893787  1
  Cr  Cr10  1  0.856213  0.102833  0.893787  1
  Cr  Cr11  1  0.856213  0.897166  0.393787  1
  Fe  Fe12  1  0.122985  0.250463  0.969779  1
  Fe  Fe13  1  0.122985  0.749537  0.469779  1
  Fe  Fe14  1  0.377015  0.750463  0.969779  1
  Fe  Fe15  1  0.377015  0.249537  0.469779  1
  Fe  Fe16  1  0.622985  0.249537  0.030221  1
  Fe  Fe17  1  0.622985  0.750463  0.530221  1
  Fe  Fe18  1  0.877015  0.250463  0.530221  1
  Fe  Fe19  1  0.877015  0.749537  0.030221  1
  O  O20  1  0.019846  0.150937  0.564374  1
  O  O21  1  0.019846  0.849063  0.064374  1
  O  O22  1  0.068340  0.567999  0.366029  1
  O  O23  1  0.068340  0.432001  0.866029  1
  O  O24  1  0.084948  0.355822  0.157557  1
  O  O25  1  0.084948  0.644178  0.657557  1
  O  O26  1  0.158826  0.078604  0.098828  1
  O  O27  1  0.158826  0.921396  0.598828  1
  O  O28  1  0.172736  0.160114  0.776642  1
  O  O29  1  0.172736  0.839886  0.276642  1
  O  O30  1  0.226861  0.822427  0.983039  1
  O  O31  1  0.226861  0.177573  0.483039  1
  O  O32  1  0.273139  0.322427  0.983039  1
  O  O33  1  0.273139  0.677573  0.483039  1
  O  O34  1  0.327264  0.660114  0.776642  1
  O  O35  1  0.327264  0.339886  0.276642  1
  O  O36  1  0.341174  0.421396  0.598828  1
  O  O37  1  0.341174  0.578604  0.098828  1
  O  O38  1  0.415052  0.144178  0.657557  1
  O  O39  1  0.415052  0.855822  0.157557  1
  O  O40  1  0.431660  0.067999  0.366029  1
  O  O41  1  0.431660  0.932001  0.866029  1
  O  O42  1  0.480154  0.650937  0.564374  1
  O  O43  1  0.480154  0.349063  0.064374  1
  O  O44  1  0.519846  0.349063  0.435626  1
  O  O45  1  0.519846  0.650937  0.935626  1
  O  O46  1  0.568340  0.067999  0.133971  1
  O  O47  1  0.568340  0.932001  0.633971  1
  O  O48  1  0.584948  0.144178  0.842443  1
  O  O49  1  0.584948  0.855822  0.342443  1
  O  O50  1  0.658826  0.421396  0.901172  1
  O  O51  1  0.658826  0.578604  0.401172  1
  O  O52  1  0.672736  0.339886  0.223358  1
  O  O53  1  0.672736  0.660114  0.723358  1
  O  O54  1  0.726861  0.322427  0.516961  1
  O  O55  1  0.726861  0.677573  0.016961  1
  O  O56  1  0.773139  0.177573  0.016961  1
  O  O57  1  0.773139  0.822427  0.516961  1
  O  O58  1  0.827264  0.160114  0.723358  1
  O  O59  1  0.827264  0.839886  0.223358  1
  O  O60  1  0.841174  0.078604  0.401172  1
  O  O61  1  0.841174  0.921396  0.901172  1
  O  O62  1  0.915052  0.355822  0.342443  1
  O  O63  1  0.915052  0.644178  0.842443  1
  O  O64  1  0.931660  0.432001  0.633971  1
  O  O65  1  0.931660  0.567999  0.133971  1
  O  O66  1  0.980154  0.150937  0.935626  1
  O  O67  1  0.980154  0.849063  0.435626  1
