# generated using pymatgen
data_Tb2MoO6
_symmetry_space_group_name_H-M   'P 1'
_cell_length_a   5.42638176
_cell_length_b   9.98956279
_cell_length_c   9.98956279
_cell_angle_alpha   68.09714485
_cell_angle_beta   75.05331086
_cell_angle_gamma   75.05331098
_symmetry_Int_Tables_number   1
_chemical_formula_structural   Tb2MoO6
_chemical_formula_sum   'Tb8 Mo4 O24'
_cell_volume   477.45681991
_cell_formula_units_Z   4
loop_
 _symmetry_equiv_pos_site_id
 _symmetry_equiv_pos_as_xyz
  1  'x, y, z'
loop_
 _atom_site_type_symbol
 _atom_site_label
 _atom_site_symmetry_multiplicity
 _atom_site_fract_x
 _atom_site_fract_y
 _atom_site_fract_z
 _atom_site_occupancy
  O  O0  1  0.921753  0.573963  0.608686  1
  O  O1  1  0.578246  0.391313  0.426037  1
  O  O2  1  0.078247  0.426037  0.391314  1
  O  O3  1  0.421754  0.608687  0.573963  1
  O  O4  1  0.916802  0.808930  0.336872  1
  O  O5  1  0.583198  0.663129  0.191070  1
  O  O6  1  0.083198  0.191071  0.663129  1
  O  O7  1  0.416802  0.336872  0.808930  1
  O  O8  1  0.369574  0.883832  0.326717  1
  O  O9  1  0.130426  0.673283  0.116167  1
  O  O10  1  0.630426  0.116168  0.673283  1
  O  O11  1  0.869574  0.326718  0.883833  1
  O  O12  1  0.636448  0.289652  0.181916  1
  O  O13  1  0.863552  0.818085  0.710348  1
  O  O14  1  0.363551  0.710347  0.818085  1
  O  O15  1  0.136448  0.181916  0.289652  1
  O  O16  1  0.515116  0.110653  0.048648  1
  O  O17  1  0.984884  0.951352  0.889347  1
  O  O18  1  0.755274  0.025387  0.430785  1
  O  O19  1  0.015117  0.048648  0.110653  1
  O  O20  1  0.255274  0.430785  0.025388  1
  O  O21  1  0.244726  0.974613  0.569215  1
  O  O22  1  0.744726  0.569214  0.974612  1
  O  O23  1  0.484884  0.889346  0.951352  1
  Mo  Mo24  1  0.059883  0.011150  0.296218  1
  Mo  Mo25  1  0.440117  0.703782  0.988850  1
  Mo  Mo26  1  0.940117  0.988849  0.703782  1
  Mo  Mo27  1  0.559883  0.296218  0.011150  1
  Tb  Tb28  1  0.620743  0.784300  0.552555  1
  Tb  Tb29  1  0.120742  0.552555  0.784301  1
  Tb  Tb30  1  0.379258  0.215700  0.447445  1
  Tb  Tb31  1  0.879258  0.447444  0.215699  1
  Tb  Tb32  1  0.749999  0.864581  0.135420  1
  Tb  Tb33  1  0.250001  0.135419  0.864581  1
  Tb  Tb34  1  0.750001  0.392635  0.607365  1
  Tb  Tb35  1  0.249999  0.607365  0.392636  1
