# generated using pymatgen
data_Tb2Ti2O7
_symmetry_space_group_name_H-M   'P 1'
_cell_length_a   7.01342087
_cell_length_b   7.01341978
_cell_length_c   12.73197362
_cell_angle_alpha   89.99984081
_cell_angle_beta   89.99998625
_cell_angle_gamma   89.99985940
_symmetry_Int_Tables_number   1
_chemical_formula_structural   Tb2Ti2O7
_chemical_formula_sum   'Tb8 Ti8 O28'
_cell_volume   626.26114161
_cell_formula_units_Z   4
loop_
 _symmetry_equiv_pos_site_id
 _symmetry_equiv_pos_as_xyz
  1  'x, y, z'
loop_
 _atom_site_type_symbol
 _atom_site_label
 _atom_site_symmetry_multiplicity
 _atom_site_fract_x
 _atom_site_fract_y
 _atom_site_fract_z
 _atom_site_occupancy
  Tb  Tb0  1  0.130168  0.639999  0.135675  1
  Tb  Tb1  1  0.140009  0.369826  0.885677  1
  Tb  Tb2  1  0.359991  0.869834  0.364323  1
  Tb  Tb3  1  0.369840  0.140003  0.114325  1
  Tb  Tb4  1  0.630163  0.859992  0.614320  1
  Tb  Tb5  1  0.640016  0.130165  0.864323  1
  Tb  Tb6  1  0.859994  0.630169  0.385673  1
  Tb  Tb7  1  0.869836  0.359998  0.635675  1
  Ti  Ti8  1  0.100254  0.851835  0.612945  1
  Ti  Ti9  1  0.148168  0.899741  0.887059  1
  Ti  Ti10  1  0.351836  0.399745  0.362952  1
  Ti  Ti11  1  0.399745  0.351834  0.637065  1
  Ti  Ti12  1  0.600258  0.648164  0.137048  1
  Ti  Ti13  1  0.648172  0.600253  0.862934  1
  Ti  Ti14  1  0.851837  0.100254  0.387065  1
  Ti  Ti15  1  0.899748  0.148155  0.112950  1
  O  O16  1  0.042477  0.925252  0.387299  1
  O  O17  1  0.073616  0.333945  0.071151  1
  O  O18  1  0.074749  0.957515  0.112700  1
  O  O19  1  0.137138  0.669954  0.956942  1
  O  O20  1  0.166047  0.573612  0.321144  1
  O  O21  1  0.169962  0.362860  0.706945  1
  O  O22  1  0.178203  0.821828  0.750001  1
  O  O23  1  0.321820  0.321800  0.500008  1
  O  O24  1  0.330032  0.862849  0.543058  1
  O  O25  1  0.333968  0.073602  0.928855  1
  O  O26  1  0.362846  0.169972  0.293058  1
  O  O27  1  0.425266  0.457518  0.137296  1
  O  O28  1  0.426389  0.833950  0.178856  1
  O  O29  1  0.457525  0.425257  0.862691  1
  O  O30  1  0.542477  0.574740  0.362707  1
  O  O31  1  0.573605  0.166035  0.678854  1
  O  O32  1  0.574747  0.542476  0.637304  1
  O  O33  1  0.637159  0.830040  0.793053  1
  O  O34  1  0.666037  0.926394  0.428853  1
  O  O35  1  0.669979  0.137137  0.043060  1
  O  O36  1  0.678197  0.678178  0.999994  1
  O  O37  1  0.821800  0.178172  0.250006  1
  O  O38  1  0.830027  0.637145  0.206940  1
  O  O39  1  0.833969  0.426396  0.821143  1
  O  O40  1  0.862858  0.330039  0.456943  1
  O  O41  1  0.925259  0.042481  0.612696  1
  O  O42  1  0.926392  0.666047  0.571140  1
  O  O43  1  0.957529  0.074737  0.887296  1
