# generated using pymatgen
data_Tb2Ti2O7
_symmetry_space_group_name_H-M   'P 1'
_cell_length_a   14.26290229
_cell_length_b   5.38084200
_cell_length_c   26.47469066
_cell_angle_alpha   89.99103373
_cell_angle_beta   164.80652212
_cell_angle_gamma   90.00385720
_symmetry_Int_Tables_number   1
_chemical_formula_structural   Tb2Ti2O7
_chemical_formula_sum   'Tb8 Ti8 O28'
_cell_volume   532.50265640
_cell_formula_units_Z   4
loop_
 _symmetry_equiv_pos_site_id
 _symmetry_equiv_pos_as_xyz
  1  'x, y, z'
loop_
 _atom_site_type_symbol
 _atom_site_label
 _atom_site_symmetry_multiplicity
 _atom_site_fract_x
 _atom_site_fract_y
 _atom_site_fract_z
 _atom_site_occupancy
  Tb  Tb0  1  0.318823  0.224716  0.966344  1
  Tb  Tb1  1  0.434274  0.763695  0.150282  1
  Tb  Tb2  1  0.274475  0.145418  0.418122  1
  Tb  Tb3  1  0.677618  0.723692  0.030118  1
  Tb  Tb4  1  0.452042  0.743033  0.687768  1
  Tb  Tb5  1  0.561738  0.267058  0.846995  1
  Tb  Tb6  1  0.544158  0.240093  0.309321  1
  Tb  Tb7  1  0.720197  0.644782  0.577754  1
  Ti  Ti8  1  0.150186  0.209203  0.738832  1
  Ti  Ti9  1  0.066652  0.744384  0.596648  1
  Ti  Ti10  1  0.060559  0.743139  0.091029  1
  Ti  Ti11  1  0.931364  0.242661  0.400841  1
  Ti  Ti12  1  0.846431  0.709162  0.258334  1
  Ti  Ti13  1  0.182314  0.220514  0.250991  1
  Ti  Ti14  1  0.937041  0.242680  0.906485  1
  Ti  Ti15  1  0.815346  0.720679  0.746576  1
  O  O16  1  0.088387  0.976315  0.031096  1
  O  O17  1  0.020014  0.057093  0.893086  1
  O  O18  1  0.262433  0.559716  0.749202  1
  O  O19  1  0.023246  0.080389  0.600173  1
  O  O20  1  0.269432  0.415704  0.857471  1
  O  O21  1  0.345542  0.630484  0.019406  1
  O  O22  1  0.115677  0.910824  0.749276  1
  O  O23  1  0.452694  0.356928  0.180039  1
  O  O24  1  0.117565  0.481397  0.572509  1
  O  O25  1  0.735068  0.054504  0.248753  1
  O  O26  1  0.883283  0.978835  0.427011  1
  O  O27  1  0.726347  0.915297  0.139306  1
  O  O28  1  0.153184  0.438084  0.291252  1
  O  O29  1  0.650465  0.132561  0.977607  1
  O  O30  1  0.544545  0.861639  0.817531  1
  O  O31  1  0.336072  0.828512  0.509420  1
  O  O32  1  0.438345  0.168085  0.659964  1
  O  O33  1  0.259011  0.943439  0.332317  1
  O  O34  1  0.880109  0.410043  0.247405  1
  O  O35  1  0.159402  0.077877  0.168947  1
  O  O36  1  0.973442  0.578112  0.397104  1
  O  O37  1  0.905045  0.477363  0.964667  1
  O  O38  1  0.974733  0.558834  0.103188  1
  O  O39  1  0.557843  0.664871  0.336909  1
  O  O40  1  0.843810  0.938165  0.706098  1
  O  O41  1  0.659300  0.329812  0.486869  1
  O  O42  1  0.737671  0.443687  0.664632  1
  O  O43  1  0.840294  0.577294  0.830103  1
