# generated using pymatgen
data_Tb2WO6
_symmetry_space_group_name_H-M   'P 1'
_cell_length_a   10.08523275
_cell_length_b   9.93249056
_cell_length_c   10.08495542
_cell_angle_alpha   76.72045053
_cell_angle_beta   112.72307801
_cell_angle_gamma   148.52497031
_symmetry_Int_Tables_number   1
_chemical_formula_structural   Tb2WO6
_chemical_formula_sum   'Tb8 W4 O24'
_cell_volume   475.97673223
_cell_formula_units_Z   4
loop_
 _symmetry_equiv_pos_site_id
 _symmetry_equiv_pos_as_xyz
  1  'x, y, z'
loop_
 _atom_site_type_symbol
 _atom_site_label
 _atom_site_symmetry_multiplicity
 _atom_site_fract_x
 _atom_site_fract_y
 _atom_site_fract_z
 _atom_site_occupancy
  Tb  Tb0  1  0.355925  0.250015  0.105914  1
  Tb  Tb1  1  0.883573  0.250008  0.633570  1
  Tb  Tb2  1  0.902443  0.958736  0.285634  1
  Tb  Tb3  1  0.173083  0.458714  0.056293  1
  Tb  Tb4  1  0.826917  0.541287  0.943707  1
  Tb  Tb5  1  0.097557  0.041264  0.714366  1
  Tb  Tb6  1  0.116428  0.749994  0.366430  1
  Tb  Tb7  1  0.644076  0.749986  0.894086  1
  W  W8  1  0.633527  0.127959  0.199686  1
  W  W9  1  0.571718  0.372016  0.505564  1
  W  W10  1  0.428281  0.627981  0.494435  1
  W  W11  1  0.366473  0.872042  0.800314  1
  O  O12  1  0.997512  0.104874  0.075828  1
  O  O13  1  0.798881  0.272144  0.061611  1
  O  O14  1  0.739115  0.426403  0.159955  1
  O  O15  1  0.867350  0.323057  0.388114  1
  O  O16  1  0.565066  0.176949  0.544281  1
  O  O17  1  0.233538  0.073574  0.312711  1
  O  O18  1  0.529048  0.604881  0.107370  1
  O  O19  1  0.763632  0.587972  0.380165  1
  O  O20  1  0.707820  0.088004  0.824333  1
  O  O21  1  0.829774  0.613796  0.682635  1
  O  O22  1  0.431189  0.113816  0.784028  1
  O  O23  1  0.289467  0.227861  0.526726  1
  O  O24  1  0.710533  0.772138  0.473274  1
  O  O25  1  0.568813  0.886186  0.215971  1
  O  O26  1  0.170225  0.386203  0.317365  1
  O  O27  1  0.292179  0.911995  0.175667  1
  O  O28  1  0.236369  0.412028  0.619835  1
  O  O29  1  0.470952  0.395119  0.892631  1
  O  O30  1  0.766462  0.926425  0.687288  1
  O  O31  1  0.434935  0.823050  0.455719  1
  O  O32  1  0.132649  0.676942  0.611885  1
  O  O33  1  0.260884  0.573598  0.840045  1
  O  O34  1  0.201123  0.727860  0.938390  1
  O  O35  1  0.002487  0.895126  0.924174  1
