# generated using pymatgen
data_Tb2Zr2O7
_symmetry_space_group_name_H-M   'P 1'
_cell_length_a   7.35066890
_cell_length_b   7.35062040
_cell_length_c   12.68643510
_cell_angle_alpha   89.99972283
_cell_angle_beta   89.99970413
_cell_angle_gamma   90.00586073
_symmetry_Int_Tables_number   1
_chemical_formula_structural   Tb2Zr2O7
_chemical_formula_sum   'Tb8 Zr8 O28'
_cell_volume   685.47316295
_cell_formula_units_Z   4
loop_
 _symmetry_equiv_pos_site_id
 _symmetry_equiv_pos_as_xyz
  1  'x, y, z'
loop_
 _atom_site_type_symbol
 _atom_site_label
 _atom_site_symmetry_multiplicity
 _atom_site_fract_x
 _atom_site_fract_y
 _atom_site_fract_z
 _atom_site_occupancy
  Tb  Tb0  1  0.137711  0.627074  0.134916  1
  Tb  Tb1  1  0.127133  0.362358  0.884914  1
  Tb  Tb2  1  0.372926  0.862294  0.365088  1
  Tb  Tb3  1  0.362337  0.127134  0.115082  1
  Tb  Tb4  1  0.637646  0.872873  0.615088  1
  Tb  Tb5  1  0.627074  0.137717  0.865092  1
  Tb  Tb6  1  0.872865  0.637665  0.384917  1
  Tb  Tb7  1  0.862285  0.372926  0.634910  1
  Zr  Zr8  1  0.100146  0.869964  0.595032  1
  Zr  Zr9  1  0.130045  0.899850  0.904963  1
  Zr  Zr10  1  0.369934  0.399800  0.345051  1
  Zr  Zr11  1  0.399821  0.369927  0.654946  1
  Zr  Zr12  1  0.600194  0.630066  0.154950  1
  Zr  Zr13  1  0.630073  0.600178  0.845053  1
  Zr  Zr14  1  0.869964  0.100153  0.404959  1
  Zr  Zr15  1  0.899851  0.130030  0.095035  1
  O  O16  1  0.069250  0.906794  0.414994  1
  O  O17  1  0.085429  0.327103  0.073794  1
  O  O18  1  0.093214  0.930747  0.085004  1
  O  O19  1  0.155807  0.638114  0.954923  1
  O  O20  1  0.172862  0.585297  0.323774  1
  O  O21  1  0.138061  0.344521  0.704899  1
  O  O22  1  0.150958  0.849058  0.749996  1
  O  O23  1  0.348841  0.348712  0.499996  1
  O  O24  1  0.361889  0.844225  0.545081  1
  O  O25  1  0.327099  0.085442  0.926202  1
  O  O26  1  0.344453  0.138052  0.295080  1
  O  O27  1  0.406778  0.430792  0.165001  1
  O  O28  1  0.414687  0.827131  0.176228  1
  O  O29  1  0.430791  0.406780  0.835004  1
  O  O30  1  0.569209  0.593213  0.335005  1
  O  O31  1  0.585317  0.172857  0.676237  1
  O  O32  1  0.593224  0.569209  0.664999  1
  O  O33  1  0.655482  0.861944  0.795104  1
  O  O34  1  0.672898  0.914576  0.426206  1
  O  O35  1  0.638108  0.155755  0.045088  1
  O  O36  1  0.651289  0.651138  0.000007  1
  O  O37  1  0.849016  0.150940  0.249996  1
  O  O38  1  0.861941  0.655548  0.204919  1
  O  O39  1  0.827148  0.414687  0.823760  1
  O  O40  1  0.844229  0.361892  0.454913  1
  O  O41  1  0.906810  0.069263  0.585005  1
  O  O42  1  0.914555  0.672906  0.573792  1
  O  O43  1  0.930747  0.093196  0.915000  1
