# generated using pymatgen
data_Tb2Zr2O7
_symmetry_space_group_name_H-M   'P 1'
_cell_length_a   10.48744804
_cell_length_b   10.48744804
_cell_length_c   5.45720105
_cell_angle_alpha   89.99988547
_cell_angle_beta   89.99988547
_cell_angle_gamma   89.99997694
_symmetry_Int_Tables_number   1
_chemical_formula_structural   Tb2Zr2O7
_chemical_formula_sum   'Tb8 Zr8 O28'
_cell_volume   600.21880560
_cell_formula_units_Z   4
loop_
 _symmetry_equiv_pos_site_id
 _symmetry_equiv_pos_as_xyz
  1  'x, y, z'
loop_
 _atom_site_type_symbol
 _atom_site_label
 _atom_site_symmetry_multiplicity
 _atom_site_fract_x
 _atom_site_fract_y
 _atom_site_fract_z
 _atom_site_occupancy
  Tb  Tb0  1  0.124721  0.624721  0.499998  1
  Tb  Tb1  1  0.124724  0.875283  0.999998  1
  Tb  Tb2  1  0.375279  0.624721  0.999998  1
  Tb  Tb3  1  0.375280  0.875280  0.499998  1
  Tb  Tb4  1  0.624721  0.124721  0.499998  1
  Tb  Tb5  1  0.624721  0.375279  0.999998  1
  Tb  Tb6  1  0.875279  0.124720  0.999998  1
  Tb  Tb7  1  0.875280  0.375280  0.499998  1
  Zr  Zr8  1  0.111314  0.111314  0.480236  1
  Zr  Zr9  1  0.111315  0.388686  0.980236  1
  Zr  Zr10  1  0.388686  0.111315  0.980236  1
  Zr  Zr11  1  0.388686  0.388686  0.480235  1
  Zr  Zr12  1  0.611313  0.611313  0.519764  1
  Zr  Zr13  1  0.611314  0.888686  0.019763  1
  Zr  Zr14  1  0.888686  0.611314  0.019763  1
  Zr  Zr15  1  0.888686  0.888686  0.519763  1
  O  O16  1  0.961083  0.744370  0.283811  1
  O  O17  1  0.961083  0.755630  0.783811  1
  O  O18  1  0.004580  0.004580  0.732447  1
  O  O19  1  0.004581  0.495419  0.232448  1
  O  O20  1  0.244369  0.461088  0.716193  1
  O  O21  1  0.244369  0.038912  0.216192  1
  O  O22  1  0.250000  0.750000  0.249997  1
  O  O23  1  0.250000  0.750000  0.749998  1
  O  O24  1  0.255631  0.461088  0.216192  1
  O  O25  1  0.255631  0.038912  0.716193  1
  O  O26  1  0.495419  0.004581  0.232448  1
  O  O27  1  0.495419  0.495419  0.732447  1
  O  O28  1  0.538917  0.744369  0.783810  1
  O  O29  1  0.538917  0.755630  0.283811  1
  O  O30  1  0.461088  0.244369  0.716193  1
  O  O31  1  0.461088  0.255631  0.216192  1
  O  O32  1  0.504582  0.995418  0.767551  1
  O  O33  1  0.504582  0.504582  0.267550  1
  O  O34  1  0.744370  0.961083  0.283811  1
  O  O35  1  0.744369  0.538917  0.783810  1
  O  O36  1  0.750000  0.250000  0.249997  1
  O  O37  1  0.750000  0.250000  0.749998  1
  O  O38  1  0.755630  0.961083  0.783811  1
  O  O39  1  0.755630  0.538917  0.283811  1
  O  O40  1  0.995419  0.995419  0.267552  1
  O  O41  1  0.995418  0.504582  0.767551  1
  O  O42  1  0.038912  0.244369  0.216192  1
  O  O43  1  0.038912  0.255631  0.716193  1
