# generated using pymatgen
data_TcAgO4
_symmetry_space_group_name_H-M   'P 1'
_cell_length_a   5.43436485
_cell_length_b   5.43379347
_cell_length_c   7.05064140
_cell_angle_alpha   112.66233047
_cell_angle_beta   112.65989338
_cell_angle_gamma   90.08270733
_symmetry_Int_Tables_number   1
_chemical_formula_structural   TcAgO4
_chemical_formula_sum   'Tc2 Ag2 O8'
_cell_volume   174.52671373
_cell_formula_units_Z   2
loop_
 _symmetry_equiv_pos_site_id
 _symmetry_equiv_pos_as_xyz
  1  'x, y, z'
loop_
 _atom_site_type_symbol
 _atom_site_label
 _atom_site_symmetry_multiplicity
 _atom_site_fract_x
 _atom_site_fract_y
 _atom_site_fract_z
 _atom_site_occupancy
  O  O0  1  0.225969  0.077523  0.916792  1
  O  O1  1  0.838871  0.726340  0.417004  1
  O  O2  1  0.578072  0.191062  0.417076  1
  O  O3  1  0.691059  0.339228  0.917083  1
  O  O4  1  0.308941  0.660772  0.082917  1
  O  O5  1  0.421928  0.808938  0.582924  1
  O  O6  1  0.161129  0.273660  0.582996  1
  O  O7  1  0.774031  0.922477  0.083208  1
  Tc  Tc8  1  0.374998  0.124830  0.749931  1
  Tc  Tc9  1  0.625002  0.875170  0.250069  1
  Ag  Ag10  1  0.875056  0.625083  0.750045  1
  Ag  Ag11  1  0.124944  0.374917  0.249955  1
