# generated using pymatgen
data_TcIr3
_symmetry_space_group_name_H-M   'P 1'
_cell_length_a   5.52816476
_cell_length_b   5.52816383
_cell_length_c   4.38343202
_cell_angle_alpha   90.00000000
_cell_angle_beta   90.00000000
_cell_angle_gamma   120.00000554
_symmetry_Int_Tables_number   1
_chemical_formula_structural   TcIr3
_chemical_formula_sum   'Tc2 Ir6'
_cell_volume   116.01302922
_cell_formula_units_Z   2
loop_
 _symmetry_equiv_pos_site_id
 _symmetry_equiv_pos_as_xyz
  1  'x, y, z'
loop_
 _atom_site_type_symbol
 _atom_site_label
 _atom_site_symmetry_multiplicity
 _atom_site_fract_x
 _atom_site_fract_y
 _atom_site_fract_z
 _atom_site_occupancy
  Tc  Tc0  1  0.333333  0.666667  0.749999  1
  Tc  Tc1  1  0.666666  0.333331  0.250001  1
  Ir  Ir2  1  0.167099  0.334197  0.250001  1
  Ir  Ir3  1  0.665803  0.832900  0.250001  1
  Ir  Ir4  1  0.167098  0.832900  0.250001  1
  Ir  Ir5  1  0.832901  0.665801  0.749999  1
  Ir  Ir6  1  0.334196  0.167100  0.749999  1
  Ir  Ir7  1  0.832901  0.167100  0.749999  1
