# generated using pymatgen
data_Tc3Rh
_symmetry_space_group_name_H-M   'P 1'
_cell_length_a   5.52635616
_cell_length_b   5.52627504
_cell_length_c   4.36356241
_cell_angle_alpha   89.98009709
_cell_angle_beta   90.01973226
_cell_angle_gamma   120.00064266
_symmetry_Int_Tables_number   1
_chemical_formula_structural   Tc3Rh
_chemical_formula_sum   'Tc6 Rh2'
_cell_volume   115.40917665
_cell_formula_units_Z   2
loop_
 _symmetry_equiv_pos_site_id
 _symmetry_equiv_pos_as_xyz
  1  'x, y, z'
loop_
 _atom_site_type_symbol
 _atom_site_label
 _atom_site_symmetry_multiplicity
 _atom_site_fract_x
 _atom_site_fract_y
 _atom_site_fract_z
 _atom_site_occupancy
  Tc  Tc0  1  0.160773  0.321555  0.250002  1
  Tc  Tc1  1  0.678444  0.839230  0.249999  1
  Tc  Tc2  1  0.160789  0.839217  0.249991  1
  Tc  Tc3  1  0.839229  0.678444  0.750004  1
  Tc  Tc4  1  0.321554  0.160770  0.750001  1
  Tc  Tc5  1  0.839214  0.160786  0.750012  1
  Rh  Rh6  1  0.333324  0.666674  0.750005  1
  Rh  Rh7  1  0.666672  0.333323  0.249998  1
