# generated using pymatgen
data_Ti5Nb2O14
_symmetry_space_group_name_H-M   'P 1'
_cell_length_a   4.73160819
_cell_length_b   4.73160819
_cell_length_c   21.06625444
_cell_angle_alpha   90.00000000
_cell_angle_beta   90.00000000
_cell_angle_gamma   89.43463746
_symmetry_Int_Tables_number   1
_chemical_formula_structural   Ti5Nb2O14
_chemical_formula_sum   'Ti10 Nb4 O28'
_cell_volume   471.61078845
_cell_formula_units_Z   2
loop_
 _symmetry_equiv_pos_site_id
 _symmetry_equiv_pos_as_xyz
  1  'x, y, z'
loop_
 _atom_site_type_symbol
 _atom_site_label
 _atom_site_symmetry_multiplicity
 _atom_site_fract_x
 _atom_site_fract_y
 _atom_site_fract_z
 _atom_site_occupancy
  Ti  Ti0  1  0.000000  0.000000  0.287429  1
  Ti  Ti1  1  0.000000  0.000000  0.141752  1
  Ti  Ti2  1  0.000000  0.000000  0.002644  1
  Ti  Ti3  1  0.000000  0.000000  0.426857  1
  Ti  Ti4  1  0.000000  0.000000  0.572534  1
  Ti  Ti5  1  0.000000  0.000000  0.711642  1
  Ti  Ti6  1  0.000000  0.000000  0.857143  1
  Ti  Ti7  1  0.500000  0.500000  0.357143  1
  Ti  Ti8  1  0.500000  0.500000  0.072666  1
  Ti  Ti9  1  0.500000  0.500000  0.641619  1
  Nb  Nb10  1  0.500000  0.500000  0.499760  1
  Nb  Nb11  1  0.500000  0.500000  0.783263  1
  Nb  Nb12  1  0.500000  0.500000  0.214525  1
  Nb  Nb13  1  0.500000  0.500000  0.931022  1
  O  O14  1  0.194918  0.805082  0.357143  1
  O  O15  1  0.195300  0.804700  0.071342  1
  O  O16  1  0.193084  0.806916  0.214299  1
  O  O17  1  0.193084  0.806916  0.499987  1
  O  O18  1  0.195300  0.804700  0.642943  1
  O  O19  1  0.193664  0.806336  0.785833  1
  O  O20  1  0.193664  0.806336  0.928452  1
  O  O21  1  0.300641  0.300641  0.001115  1
  O  O22  1  0.301381  0.301381  0.141955  1
  O  O23  1  0.301903  0.301903  0.427543  1
  O  O24  1  0.301381  0.301381  0.572331  1
  O  O25  1  0.300641  0.300641  0.713171  1
  O  O26  1  0.301903  0.301903  0.286742  1
  O  O27  1  0.299307  0.299307  0.857143  1
  O  O28  1  0.699359  0.699359  0.001115  1
  O  O29  1  0.698619  0.698619  0.141955  1
  O  O30  1  0.698097  0.698097  0.286742  1
  O  O31  1  0.698097  0.698097  0.427543  1
  O  O32  1  0.699359  0.699359  0.713171  1
  O  O33  1  0.700693  0.700693  0.857143  1
  O  O34  1  0.698619  0.698619  0.572331  1
  O  O35  1  0.804700  0.195300  0.071342  1
  O  O36  1  0.806916  0.193084  0.214299  1
  O  O37  1  0.805082  0.194918  0.357143  1
  O  O38  1  0.806916  0.193084  0.499987  1
  O  O39  1  0.804700  0.195300  0.642943  1
  O  O40  1  0.806336  0.193664  0.785833  1
  O  O41  1  0.806336  0.193664  0.928452  1
