# generated using pymatgen
data_TiNiO3
_symmetry_space_group_name_H-M   'P 1'
_cell_length_a   5.49700526
_cell_length_b   5.48929752
_cell_length_c   27.45036571
_cell_angle_alpha   55.03869420
_cell_angle_beta   54.90770881
_cell_angle_gamma   54.87876994
_symmetry_Int_Tables_number   1
_chemical_formula_structural   TiNiO3
_chemical_formula_sum   'Ti10 Ni10 O30'
_cell_volume   516.75037868
_cell_formula_units_Z   10
loop_
 _symmetry_equiv_pos_site_id
 _symmetry_equiv_pos_as_xyz
  1  'x, y, z'
loop_
 _atom_site_type_symbol
 _atom_site_label
 _atom_site_symmetry_multiplicity
 _atom_site_fract_x
 _atom_site_fract_y
 _atom_site_fract_z
 _atom_site_occupancy
  Ti  Ti0  1  0.148473  0.143094  0.228786  1
  Ti  Ti1  1  0.145858  0.146101  0.427374  1
  Ti  Ti2  1  0.871221  0.860842  0.167891  1
  Ti  Ti3  1  0.146812  0.147425  0.627117  1
  Ti  Ti4  1  0.859554  0.858159  0.370235  1
  Ti  Ti5  1  0.145085  0.147802  0.828890  1
  Ti  Ti6  1  0.860574  0.859771  0.569884  1
  Ti  Ti7  1  0.864647  0.858598  0.769840  1
  Ti  Ti8  1  0.642381  0.658581  0.935497  1
  Ti  Ti9  1  0.842136  0.866474  0.976204  1
  Ni  Ni10  1  0.150939  0.147831  0.031947  1
  Ni  Ni11  1  0.341259  0.355897  0.074447  1
  Ni  Ni12  1  0.352840  0.349094  0.269664  1
  Ni  Ni13  1  0.654316  0.646781  0.133115  1
  Ni  Ni14  1  0.351931  0.351786  0.469026  1
  Ni  Ni15  1  0.650819  0.652580  0.328508  1
  Ni  Ni16  1  0.352117  0.350751  0.669684  1
  Ni  Ni17  1  0.650928  0.651761  0.529071  1
  Ni  Ni18  1  0.357746  0.355405  0.869663  1
  Ni  Ni19  1  0.650606  0.653758  0.729200  1
  O  O20  1  0.049598  0.754779  0.092858  1
  O  O21  1  0.439510  0.052910  0.154476  1
  O  O22  1  0.762763  0.472934  0.005974  1
  O  O23  1  0.231653  0.561015  0.190749  1
  O  O24  1  0.581075  0.951454  0.047248  1
  O  O25  1  0.049921  0.769088  0.289084  1
  O  O26  1  0.948581  0.239459  0.113639  1
  O  O27  1  0.436386  0.050183  0.354355  1
  O  O28  1  0.769458  0.430152  0.213370  1
  O  O29  1  0.228870  0.558422  0.390422  1
  O  O30  1  0.560515  0.946607  0.246097  1
  O  O31  1  0.049857  0.769836  0.488867  1
  O  O32  1  0.946326  0.228664  0.314023  1
  O  O33  1  0.436767  0.051455  0.554029  1
  O  O34  1  0.769414  0.434249  0.411230  1
  O  O35  1  0.229193  0.558896  0.590389  1
  O  O36  1  0.559408  0.947148  0.446377  1
  O  O37  1  0.049796  0.771466  0.688906  1
  O  O38  1  0.945653  0.230224  0.513751  1
  O  O39  1  0.437786  0.053002  0.755371  1
  O  O40  1  0.769440  0.434467  0.611241  1
  O  O41  1  0.233188  0.560816  0.789918  1
  O  O42  1  0.559932  0.947878  0.646250  1
  O  O43  1  0.060586  0.772664  0.886365  1
  O  O44  1  0.946653  0.230680  0.713814  1
  O  O45  1  0.472644  0.048594  0.948587  1
  O  O46  1  0.776037  0.435442  0.810522  1
  O  O47  1  0.258281  0.590384  0.983742  1
  O  O48  1  0.571167  0.935334  0.849269  1
  O  O49  1  0.935601  0.255605  0.914293  1
