# generated using pymatgen
data_Ti11Fe17O42
_symmetry_space_group_name_H-M   'P 1'
_cell_length_a   11.63012839
_cell_length_b   7.53910937
_cell_length_c   9.17138789
_cell_angle_alpha   71.83076837
_cell_angle_beta   99.47946826
_cell_angle_gamma   86.95072648
_symmetry_Int_Tables_number   1
_chemical_formula_structural   Ti11Fe17O42
_chemical_formula_sum   'Ti11 Fe17 O42'
_cell_volume   748.92141703
_cell_formula_units_Z   1
loop_
 _symmetry_equiv_pos_site_id
 _symmetry_equiv_pos_as_xyz
  1  'x, y, z'
loop_
 _atom_site_type_symbol
 _atom_site_label
 _atom_site_symmetry_multiplicity
 _atom_site_fract_x
 _atom_site_fract_y
 _atom_site_fract_z
 _atom_site_occupancy
  Ti  Ti0  1  0.815287  0.487192  0.735450  1
  Ti  Ti1  1  0.957853  0.776116  0.163542  1
  Ti  Ti2  1  0.753764  0.654505  0.976494  1
  Ti  Ti3  1  0.893622  0.942141  0.403424  1
  Ti  Ti4  1  0.531455  0.916353  0.882080  1
  Ti  Ti5  1  0.614429  0.370250  0.546129  1
  Ti  Ti6  1  0.329028  0.794931  0.689467  1
  Ti  Ti7  1  0.474730  0.086538  0.124641  1
  Ti  Ti8  1  0.241732  0.344172  0.019002  1
  Ti  Ti9  1  0.097646  0.059324  0.593235  1
  Ti  Ti10  1  0.184218  0.515958  0.265130  1
  Fe  Fe11  1  0.757716  0.165663  0.972509  1
  Fe  Fe12  1  0.898066  0.450686  0.399654  1
  Fe  Fe13  1  0.816704  0.987267  0.740152  1
  Fe  Fe14  1  0.954879  0.270000  0.163898  1
  Fe  Fe15  1  0.673355  0.204146  0.307929  1
  Fe  Fe16  1  0.671004  0.690078  0.315246  1
  Fe  Fe17  1  0.613843  0.874600  0.546083  1
  Fe  Fe18  1  0.527750  0.408264  0.885228  1
  Fe  Fe19  1  0.390709  0.628467  0.451933  1
  Fe  Fe20  1  0.386461  0.126566  0.450631  1
  Fe  Fe21  1  0.329571  0.304318  0.688732  1
  Fe  Fe22  1  0.472560  0.583098  0.121293  1
  Fe  Fe23  1  0.097064  0.557114  0.596640  1
  Fe  Fe24  1  0.041904  0.738513  0.827267  1
  Fe  Fe25  1  0.188225  0.010948  0.263932  1
  Fe  Fe26  1  0.243231  0.845558  0.022375  1
  Fe  Fe27  1  0.041711  0.228301  0.833804  1
  O  O28  1  0.992542  0.027558  0.755330  1
  O  O29  1  0.918475  0.277360  0.946458  1
  O  O30  1  0.936050  0.435729  0.637041  1
  O  O31  1  0.835501  0.894375  -0.000748  1
  O  O32  1  0.979847  0.186083  0.417179  1
  O  O33  1  0.865647  0.682032  0.813484  1
  O  O34  1  0.701994  0.460253  0.904587  1
  O  O35  1  0.848086  0.743932  0.330847  1
  O  O36  1  0.736536  0.247615  0.724229  1
  O  O37  1  0.880466  0.523143  0.148485  1
  O  O38  1  0.776524  0.987622  0.505085  1
  O  O39  1  0.652699  0.865023  0.785260  1
  O  O40  1  0.802801  0.150708  0.206430  1
  O  O41  1  0.693517  0.610373  0.569560  1
  O  O42  1  0.727005  0.402671  0.388175  1
  O  O43  1  0.581471  0.111432  0.954257  1
  O  O44  1  0.564071  0.175120  0.477432  1
  O  O45  1  0.593901  0.955919  0.287656  1
  O  O46  1  0.449332  0.677691  0.859819  1
  O  O47  1  0.488953  0.415346  0.651269  1
  O  O48  1  0.633958  0.706824  0.076109  1
  O  O49  1  0.362729  0.298211  0.911227  1
  O  O50  1  0.515196  0.576872  0.352197  1
  O  O51  1  0.404915  0.049261  0.714704  1
  O  O52  1  0.543985  0.326548  0.129268  1
  O  O53  1  0.437454  0.833055  0.532022  1
  O  O54  1  0.415018  0.887744  0.046160  1
  O  O55  1  0.275842  0.596923  0.622153  1
  O  O56  1  0.304412  0.382505  0.437856  1
  O  O57  1  0.207551  0.845826  0.800003  1
  O  O58  1  0.348744  0.137396  0.214864  1
  O  O59  1  0.221633  0.001729  0.501081  1
  O  O60  1  0.120659  0.471155  0.855256  1
  O  O61  1  0.260228  0.752334  0.270065  1
  O  O62  1  0.160212  0.255003  0.667039  1
  O  O63  1  0.292561  0.538030  0.095936  1
  O  O64  1  0.127656  0.317474  0.185911  1
  O  O65  1  0.171292  0.093964  0.006714  1
  O  O66  1  0.021510  0.820890  0.574627  1
  O  O67  1  0.060466  0.560405  0.359784  1
  O  O68  1  0.081345  0.725078  0.063361  1
  O  O69  1  0.008701  0.971715  0.235929  1
