# generated using pymatgen
data_Cr14MoO24
_symmetry_space_group_name_H-M   'P 1'
_cell_length_a   5.47201418
_cell_length_b   5.45046357
_cell_length_c   21.66715232
_cell_angle_alpha   55.96841943
_cell_angle_beta   55.95983268
_cell_angle_gamma   55.97415760
_symmetry_Int_Tables_number   1
_chemical_formula_structural   Cr14MoO24
_chemical_formula_sum   'Cr14 Mo1 O24'
_cell_volume   414.25345928
_cell_formula_units_Z   1
loop_
 _symmetry_equiv_pos_site_id
 _symmetry_equiv_pos_as_xyz
  1  'x, y, z'
loop_
 _atom_site_type_symbol
 _atom_site_label
 _atom_site_symmetry_multiplicity
 _atom_site_fract_x
 _atom_site_fract_y
 _atom_site_fract_z
 _atom_site_occupancy
  Cr  Cr0  1  0.130822  0.148032  0.043405  1
  Cr  Cr1  1  0.364092  0.349878  0.084337  1
  Cr  Cr2  1  0.150820  0.150570  0.286798  1
  Cr  Cr3  1  0.350052  0.350640  0.337389  1
  Cr  Cr4  1  0.653275  0.648466  0.161971  1
  Cr  Cr5  1  0.149070  0.152184  0.536871  1
  Cr  Cr6  1  0.850930  0.847816  0.213129  1
  Cr  Cr7  1  0.346725  0.351534  0.588029  1
  Cr  Cr8  1  0.649948  0.649360  0.412611  1
  Cr  Cr9  1  0.180094  0.170572  0.784745  1
  Cr  Cr10  1  0.849180  0.849430  0.463202  1
  Cr  Cr11  1  0.635908  0.650122  0.665663  1
  Cr  Cr12  1  0.869178  0.851968  0.706595  1
  Cr  Cr13  1  0.819906  0.829428  0.965255  1
  Mo  Mo14  1  0.500000  0.500000  0.875000  1
  O  O15  1  0.053678  0.743438  0.112378  1
  O  O16  1  0.454254  0.051532  0.185995  1
  O  O17  1  0.749311  0.434693  0.021428  1
  O  O18  1  0.251766  0.550035  0.236947  1
  O  O19  1  0.549859  0.945629  0.062612  1
  O  O20  1  0.049494  0.750830  0.362261  1
  O  O21  1  0.956343  0.244235  0.139791  1
  O  O22  1  0.450531  0.049744  0.437608  1
  O  O23  1  0.749512  0.450295  0.262854  1
  O  O24  1  0.250488  0.549705  0.487146  1
  O  O25  1  0.549469  0.950256  0.312392  1
  O  O26  1  0.043657  0.755765  0.610209  1
  O  O27  1  0.950506  0.249170  0.387739  1
  O  O28  1  0.450141  0.054371  0.687388  1
  O  O29  1  0.748234  0.449965  0.513053  1
  O  O30  1  0.250689  0.565307  0.728572  1
  O  O31  1  0.545746  0.948468  0.564005  1
  O  O32  1  0.103965  0.750848  0.859697  1
  O  O33  1  0.946322  0.256562  0.637622  1
  O  O34  1  0.430872  0.096241  0.937960  1
  O  O35  1  0.757293  0.449350  0.766574  1
  O  O36  1  0.242707  0.550650  0.983426  1
  O  O37  1  0.569128  0.903759  0.812040  1
  O  O38  1  0.896035  0.249152  0.890303  1
