# generated using pymatgen
data_Ti3Fe3O
_symmetry_space_group_name_H-M   'P 1'
_cell_length_a   8.15923265
_cell_length_b   8.16647995
_cell_length_c   8.14720386
_cell_angle_alpha   59.98947916
_cell_angle_beta   59.97597859
_cell_angle_gamma   59.79949750
_symmetry_Int_Tables_number   1
_chemical_formula_structural   Ti3Fe3O
_chemical_formula_sum   'Ti12 Fe12 O4'
_cell_volume   383.17953009
_cell_formula_units_Z   4
loop_
 _symmetry_equiv_pos_site_id
 _symmetry_equiv_pos_as_xyz
  1  'x, y, z'
loop_
 _atom_site_type_symbol
 _atom_site_label
 _atom_site_symmetry_multiplicity
 _atom_site_fract_x
 _atom_site_fract_y
 _atom_site_fract_z
 _atom_site_occupancy
  O  O0  1  0.999859  0.500067  0.999339  1
  O  O1  1  0.499811  0.999900  0.000182  1
  O  O2  1  0.999955  0.000783  0.499894  1
  O  O3  1  0.000151  0.999508  0.000495  1
  Ti  Ti4  1  0.061628  0.691775  0.692888  1
  Ti  Ti5  1  0.310054  0.939208  0.943459  1
  Ti  Ti6  1  0.693428  0.054983  0.690868  1
  Ti  Ti7  1  0.691294  0.691473  0.056622  1
  Ti  Ti8  1  0.058854  0.058974  0.692389  1
  Ti  Ti9  1  0.053889  0.693014  0.061506  1
  Ti  Ti10  1  0.307213  0.943273  0.309975  1
  Ti  Ti11  1  0.945764  0.307954  0.936004  1
  Ti  Ti12  1  0.690334  0.060542  0.055652  1
  Ti  Ti13  1  0.941983  0.942094  0.307397  1
  Ti  Ti14  1  0.308093  0.307976  0.945392  1
  Ti  Ti15  1  0.935739  0.310644  0.308079  1
  Fe  Fe16  1  0.293170  0.290686  0.287442  1
  Fe  Fe17  1  0.712816  0.706375  0.371365  1
  Fe  Fe18  1  0.710268  0.370446  0.712783  1
  Fe  Fe19  1  0.372432  0.708491  0.706489  1
  Fe  Fe20  1  0.289942  0.628849  0.290212  1
  Fe  Fe21  1  0.628186  0.289776  0.293816  1
  Fe  Fe22  1  0.288294  0.291567  0.627907  1
  Fe  Fe23  1  0.706291  0.712440  0.709610  1
  Fe  Fe24  1  0.499382  0.999816  0.500234  1
  Fe  Fe25  1  0.000093  0.499651  0.499504  1
  Fe  Fe26  1  0.501128  0.499641  0.000447  1
  Fe  Fe27  1  0.499950  0.500093  0.500050  1
