# generated using pymatgen
data_Ti6Fe8O21
_symmetry_space_group_name_H-M   'P 1'
_cell_length_a   8.94514742
_cell_length_b   7.60095625
_cell_length_c   12.36968768
_cell_angle_alpha   95.49903934
_cell_angle_beta   82.84697014
_cell_angle_gamma   113.43027378
_symmetry_Int_Tables_number   1
_chemical_formula_structural   Ti6Fe8O21
_chemical_formula_sum   'Ti12 Fe16 O42'
_cell_volume   764.69042172
_cell_formula_units_Z   2
loop_
 _symmetry_equiv_pos_site_id
 _symmetry_equiv_pos_as_xyz
  1  'x, y, z'
loop_
 _atom_site_type_symbol
 _atom_site_label
 _atom_site_symmetry_multiplicity
 _atom_site_fract_x
 _atom_site_fract_y
 _atom_site_fract_z
 _atom_site_occupancy
  Ti  Ti0  1  0.934578  0.620274  0.592197  1
  Ti  Ti1  1  0.771890  0.240369  0.838105  1
  Ti  Ti2  1  0.339453  0.534175  0.987004  1
  Ti  Ti3  1  0.794229  0.036648  0.302926  1
  Ti  Ti4  1  0.517690  0.894397  0.727281  1
  Ti  Ti5  1  0.922565  0.808299  0.122089  1
  Ti  Ti6  1  0.372250  0.334216  0.450041  1
  Ti  Ti7  1  0.484892  0.094356  0.264244  1
  Ti  Ti8  1  0.652310  0.474006  0.017015  1
  Ti  Ti9  1  0.085253  0.188202  0.876181  1
  Ti  Ti10  1  0.204832  0.954566  0.697271  1
  Ti  Ti11  1  0.062914  0.391923  0.411360  1
  Fe  Fe12  1  0.936758  0.111340  0.589526  1
  Fe  Fe13  1  0.774088  0.742644  0.842690  1
  Fe  Fe14  1  0.633639  0.669127  0.552956  1
  Fe  Fe15  1  0.344010  0.022061  0.979519  1
  Fe  Fe16  1  0.636796  0.172431  0.554960  1
  Fe  Fe17  1  0.801031  0.543837  0.304143  1
  Fe  Fe18  1  0.920385  0.317231  0.124760  1
  Fe  Fe19  1  0.513133  0.406510  0.734767  1
  Fe  Fe20  1  0.480970  0.596707  0.269136  1
  Fe  Fe21  1  0.083055  0.685928  0.871596  1
  Fe  Fe22  1  0.198138  0.456000  0.697061  1
  Fe  Fe23  1  0.659005  0.972571  0.017225  1
  Fe  Fe24  1  0.376173  0.831865  0.445150  1
  Fe  Fe25  1  0.220347  0.256140  0.159326  1
  Fe  Fe26  1  0.056112  0.884735  0.410142  1
  Fe  Fe27  1  0.223504  0.759445  0.161330  1
  O  O28  1  0.894706  0.185081  0.962701  1
  O  O29  1  0.962437  0.243491  0.751585  1
  O  O30  1  0.836714  0.502209  0.886737  1
  O  O31  1  0.596476  0.214548  0.975829  1
  O  O32  1  0.889521  0.361908  0.540059  1
  O  O33  1  0.951625  0.075746  0.404089  1
  O  O34  1  0.659581  0.939654  0.834849  1
  O  O35  1  0.758543  0.616783  0.683184  1
  O  O36  1  0.839699  0.663996  0.452931  1
  O  O37  1  0.533956  0.521192  0.901734  1
  O  O38  1  0.624139  0.214567  0.735361  1
  O  O39  1  0.905518  0.352825  0.310197  1
  O  O40  1  0.967622  0.066663  0.174227  1
  O  O41  1  0.695030  0.947965  0.605700  1
  O  O42  1  0.718628  0.770855  0.266458  1
  O  O43  1  0.441392  0.631211  0.696085  1
  O  O44  1  0.233004  0.214004  0.978925  1
  O  O45  1  0.511856  0.353617  0.548138  1
  O  O46  1  0.801907  0.513456  0.130988  1
  O  O47  1  0.323187  0.907380  0.812551  1
  O  O48  1  0.609308  0.045326  0.398014  1
  O  O49  1  0.385380  0.940245  0.599097  1
  O  O50  1  0.679880  0.099413  0.183543  1
  O  O51  1  0.770132  0.776044  0.021958  1
  O  O52  1  0.197562  0.488917  0.879436  1
  O  O53  1  0.462436  0.626398  0.438450  1
  O  O54  1  0.260666  0.214024  0.738456  1
  O  O55  1  0.555907  0.369599  0.314609  1
  O  O56  1  0.301236  0.058973  0.399677  1
  O  O57  1  0.020429  0.926362  0.827549  1
  O  O58  1  0.087010  0.652528  0.692327  1
  O  O59  1  0.394706  0.802173  0.275836  1
  O  O60  1  0.471763  0.488327  0.115188  1
  O  O61  1  0.177263  0.329158  0.530743  1
  O  O62  1  0.247834  0.383246  0.316271  1
  O  O63  1  0.345287  0.074954  0.166147  1
  O  O64  1  0.055236  0.915116  0.583298  1
  O  O65  1  0.415751  0.797360  0.018200  1
  O  O66  1  0.138515  0.657717  0.447828  1
  O  O67  1  0.162113  0.480607  0.108586  1
  O  O68  1  0.017444  0.764575  0.261355  1
  O  O69  1  0.098600  0.811788  0.031102  1
