# generated using pymatgen
data_Ti3Mn3O
_symmetry_space_group_name_H-M   'P 1'
_cell_length_a   8.40956543
_cell_length_b   8.40956548
_cell_length_c   8.40956493
_cell_angle_alpha   59.99999745
_cell_angle_beta   59.99999727
_cell_angle_gamma   59.99999838
_symmetry_Int_Tables_number   1
_chemical_formula_structural   Ti3Mn3O
_chemical_formula_sum   'Ti12 Mn12 O4'
_cell_volume   420.53836171
_cell_formula_units_Z   4
loop_
 _symmetry_equiv_pos_site_id
 _symmetry_equiv_pos_as_xyz
  1  'x, y, z'
loop_
 _atom_site_type_symbol
 _atom_site_label
 _atom_site_symmetry_multiplicity
 _atom_site_fract_x
 _atom_site_fract_y
 _atom_site_fract_z
 _atom_site_occupancy
  Mn  Mn0  1  0.500000  0.500000  0.500000  1
  Mn  Mn1  1  0.500000  0.500000  0.000000  1
  Mn  Mn2  1  0.000000  0.500000  0.500000  1
  Mn  Mn3  1  0.500000  0.000000  0.500000  1
  Mn  Mn4  1  0.713710  0.713710  0.713710  1
  Mn  Mn5  1  0.286290  0.286290  0.641130  1
  Mn  Mn6  1  0.641130  0.286290  0.286290  1
  Mn  Mn7  1  0.286290  0.641130  0.286290  1
  Mn  Mn8  1  0.358870  0.713710  0.713710  1
  Mn  Mn9  1  0.713710  0.358870  0.713710  1
  Mn  Mn10  1  0.713710  0.713710  0.358870  1
  Mn  Mn11  1  0.286290  0.286290  0.286290  1
  Ti  Ti12  1  0.692965  0.057035  0.057035  1
  Ti  Ti13  1  0.942965  0.942965  0.307035  1
  Ti  Ti14  1  0.307035  0.307035  0.942965  1
  Ti  Ti15  1  0.942965  0.307035  0.307035  1
  Ti  Ti16  1  0.942965  0.307035  0.942965  1
  Ti  Ti17  1  0.307035  0.942965  0.307035  1
  Ti  Ti18  1  0.057035  0.692965  0.057035  1
  Ti  Ti19  1  0.057035  0.057035  0.692965  1
  Ti  Ti20  1  0.692965  0.692965  0.057035  1
  Ti  Ti21  1  0.692965  0.057035  0.692965  1
  Ti  Ti22  1  0.307035  0.942965  0.942965  1
  Ti  Ti23  1  0.057035  0.692965  0.692965  1
  O  O24  1  0.000000  0.000000  0.000000  1
  O  O25  1  0.000000  0.000000  0.500000  1
  O  O26  1  0.500000  0.000000  0.000000  1
  O  O27  1  0.000000  0.500000  0.000000  1
