# generated using pymatgen
data_Ti3(WO6)2
_symmetry_space_group_name_H-M   'P 1'
_cell_length_a   9.24458702
_cell_length_b   12.97369521
_cell_length_c   9.40564908
_cell_angle_alpha   90.00000000
_cell_angle_beta   90.00000000
_cell_angle_gamma   90.21834031
_symmetry_Int_Tables_number   1
_chemical_formula_structural   Ti3(WO6)2
_chemical_formula_sum   'Ti12 W8 O48'
_cell_volume   1128.07201032
_cell_formula_units_Z   4
loop_
 _symmetry_equiv_pos_site_id
 _symmetry_equiv_pos_as_xyz
  1  'x, y, z'
loop_
 _atom_site_type_symbol
 _atom_site_label
 _atom_site_symmetry_multiplicity
 _atom_site_fract_x
 _atom_site_fract_y
 _atom_site_fract_z
 _atom_site_occupancy
  Ti  Ti0  1  0.027860  0.489594  0.252312  1
  Ti  Ti1  1  0.108364  0.856592  0.384165  1
  Ti  Ti2  1  0.111963  0.140239  0.109379  1
  Ti  Ti3  1  0.391636  0.643408  0.884165  1
  Ti  Ti4  1  0.388037  0.359761  0.609379  1
  Ti  Ti5  1  0.472140  0.010406  0.752312  1
  Ti  Ti6  1  0.527860  0.989594  0.247688  1
  Ti  Ti7  1  0.611963  0.640239  0.390621  1
  Ti  Ti8  1  0.608364  0.356592  0.115835  1
  Ti  Ti9  1  0.888037  0.859761  0.890621  1
  Ti  Ti10  1  0.891636  0.143408  0.615835  1
  Ti  Ti11  1  0.972140  0.510406  0.747688  1
  W  W12  1  0.253103  0.882196  0.027392  1
  W  W13  1  0.246897  0.617804  0.527392  1
  W  W14  1  0.753103  0.382196  0.472608  1
  W  W15  1  0.746897  0.117804  0.972608  1
  W  W16  1  0.250547  0.379982  0.968517  1
  W  W17  1  0.249453  0.120018  0.468517  1
  W  W18  1  0.750547  0.879982  0.531483  1
  W  W19  1  0.749453  0.620018  0.031483  1
  O  O20  1  0.087815  0.435090  0.863969  1
  O  O21  1  0.082339  0.885785  0.908454  1
  O  O22  1  0.083557  0.608241  0.659134  1
  O  O23  1  0.081584  0.164787  0.572690  1
  O  O24  1  0.118382  0.577524  0.375791  1
  O  O25  1  0.134461  0.848834  0.191525  1
  O  O26  1  0.156080  0.984174  0.441922  1
  O  O27  1  0.156785  0.250270  0.993799  1
  O  O28  1  0.161931  0.167027  0.293370  1
  O  O29  1  0.166385  0.429085  0.144207  1
  O  O30  1  0.216265  0.759703  0.482502  1
  O  O31  1  0.283735  0.740297  0.982502  1
  O  O32  1  0.219614  0.030819  0.060143  1
  O  O33  1  0.280386  0.469181  0.560143  1
  O  O34  1  0.333615  0.070915  0.644207  1
  O  O35  1  0.338069  0.332973  0.793370  1
  O  O36  1  0.343921  0.515826  0.941922  1
  O  O37  1  0.343215  0.249730  0.493799  1
  O  O38  1  0.365539  0.651166  0.691525  1
  O  O39  1  0.381618  0.922476  0.875791  1
  O  O40  1  0.416443  0.891759  0.159134  1
  O  O41  1  0.417661  0.614215  0.408454  1
  O  O42  1  0.418416  0.335213  0.072690  1
  O  O43  1  0.412185  0.064910  0.363969  1
  O  O44  1  0.587815  0.935090  0.636031  1
  O  O45  1  0.581584  0.664787  0.927310  1
  O  O46  1  0.582339  0.385785  0.591546  1
  O  O47  1  0.583557  0.108241  0.840866  1
  O  O48  1  0.618382  0.077524  0.124209  1
  O  O49  1  0.634461  0.348834  0.308475  1
  O  O50  1  0.656785  0.750270  0.506201  1
  O  O51  1  0.656079  0.484174  0.058078  1
  O  O52  1  0.661931  0.667027  0.206630  1
  O  O53  1  0.666385  0.929085  0.355793  1
  O  O54  1  0.719614  0.530819  0.439857  1
  O  O55  1  0.780386  0.969181  0.939857  1
  O  O56  1  0.716265  0.259703  0.017498  1
  O  O57  1  0.783735  0.240297  0.517498  1
  O  O58  1  0.833615  0.570915  0.855793  1
  O  O59  1  0.838069  0.832973  0.706630  1
  O  O60  1  0.843215  0.749730  0.006201  1
  O  O61  1  0.843921  0.015826  0.558078  1
  O  O62  1  0.865539  0.151166  0.808475  1
  O  O63  1  0.881618  0.422476  0.624209  1
  O  O64  1  0.918416  0.835213  0.427310  1
  O  O65  1  0.916443  0.391759  0.340866  1
  O  O66  1  0.917661  0.114215  0.091546  1
  O  O67  1  0.912185  0.564910  0.136031  1
