# generated using pymatgen
data_Cr2(MoO4)3
_symmetry_space_group_name_H-M   'P 1'
_cell_length_a   9.37112764
_cell_length_b   15.87106095
_cell_length_c   15.98614777
_cell_angle_alpha   109.07240323
_cell_angle_beta   90.00000000
_cell_angle_gamma   90.00000000
_symmetry_Int_Tables_number   1
_chemical_formula_structural   Cr2(MoO4)3
_chemical_formula_sum   'Cr16 Mo24 O96'
_cell_volume   2247.09971083
_cell_formula_units_Z   8
loop_
 _symmetry_equiv_pos_site_id
 _symmetry_equiv_pos_as_xyz
  1  'x, y, z'
loop_
 _atom_site_type_symbol
 _atom_site_label
 _atom_site_symmetry_multiplicity
 _atom_site_fract_x
 _atom_site_fract_y
 _atom_site_fract_z
 _atom_site_occupancy
  Cr  Cr0  1  0.474699  0.933707  0.815276  1
  Cr  Cr1  1  0.025301  0.433707  0.815276  1
  Cr  Cr2  1  0.018592  0.309547  0.417325  1
  Cr  Cr3  1  0.518592  0.190453  0.582675  1
  Cr  Cr4  1  0.464075  0.435956  0.317938  1
  Cr  Cr5  1  0.535925  0.564044  0.682062  1
  Cr  Cr6  1  0.481408  0.809547  0.417325  1
  Cr  Cr7  1  0.543106  0.675217  0.049041  1
  Cr  Cr8  1  0.964075  0.064044  0.682062  1
  Cr  Cr9  1  0.035925  0.935956  0.317938  1
  Cr  Cr10  1  0.043106  0.824783  0.950959  1
  Cr  Cr11  1  0.956894  0.175217  0.049041  1
  Cr  Cr12  1  0.981408  0.690453  0.582675  1
  Cr  Cr13  1  0.456894  0.324783  0.950959  1
  Cr  Cr14  1  0.525301  0.066293  0.184724  1
  Cr  Cr15  1  0.974699  0.566293  0.184724  1
  Mo  Mo16  1  0.127958  0.360726  0.213297  1
  Mo  Mo17  1  0.254990  0.018402  0.019255  1
  Mo  Mo18  1  0.250965  0.006394  0.510551  1
  Mo  Mo19  1  0.754990  0.481598  0.980745  1
  Mo  Mo20  1  0.750965  0.493606  0.489449  1
  Mo  Mo21  1  0.249035  0.506394  0.510551  1
  Mo  Mo22  1  0.621301  0.274917  0.135051  1
  Mo  Mo23  1  0.380495  0.231807  0.383261  1
  Mo  Mo24  1  0.245010  0.518402  0.019255  1
  Mo  Mo25  1  0.627958  0.139274  0.786703  1
  Mo  Mo26  1  0.378699  0.725083  0.864949  1
  Mo  Mo27  1  0.383956  0.389027  0.747892  1
  Mo  Mo28  1  0.116044  0.889027  0.747892  1
  Mo  Mo29  1  0.121301  0.225083  0.864949  1
  Mo  Mo30  1  0.372042  0.860726  0.213297  1
  Mo  Mo31  1  0.119505  0.731807  0.383261  1
  Mo  Mo32  1  0.883956  0.110973  0.252108  1
  Mo  Mo33  1  0.872042  0.639274  0.786703  1
  Mo  Mo34  1  0.616044  0.610973  0.252108  1
  Mo  Mo35  1  0.878699  0.774917  0.135051  1
  Mo  Mo36  1  0.745010  0.981598  0.980745  1
  Mo  Mo37  1  0.619505  0.768193  0.616739  1
  Mo  Mo38  1  0.880495  0.268193  0.616739  1
  Mo  Mo39  1  0.749035  0.993606  0.489449  1
  O  O40  1  0.601578  0.238700  0.879404  1
  O  O41  1  0.208704  0.435556  0.751165  1
  O  O42  1  0.648118  0.094062  0.506076  1
  O  O43  1  0.681884  0.496517  0.595017  1
  O  O44  1  0.101578  0.261300  0.120596  1
  O  O45  1  0.082412  0.318452  0.829660  1
  O  O46  1  0.810780  0.770289  0.609072  1
  O  O47  1  0.576472  0.621989  0.146052  1
  O  O48  1  0.076472  0.878011  0.853948  1
  O  O49  1  0.791296  0.564444  0.248835  1
  O  O50  1  0.641794  0.895878  0.450730  1
  O  O51  1  0.466043  0.951428  0.196189  1
  O  O52  1  0.611661  0.718267  0.336132  1
  O  O53  1  0.465288  0.235491  0.484716  1
  O  O54  1  0.570418  0.869120  0.701307  1
  O  O55  1  0.858206  0.395878  0.450730  1
  O  O56  1  0.888469  0.874646  0.229109  1
  O  O57  1  0.878767  0.500089  0.070307  1
  O  O58  1  0.689220  0.270289  0.609072  1
  O  O59  1  0.429582  0.130880  0.298693  1
  O  O60  1  0.311944  0.413115  0.022324  1
  O  O61  1  0.996666  0.221371  0.948812  1
  O  O62  1  0.302241  0.234634  0.903623  1
  O  O63  1  0.398422  0.761300  0.120596  1
  O  O64  1  0.062336  0.346417  0.312483  1
  O  O65  1  0.888279  0.988516  0.411160  1
  O  O66  1  0.582412  0.181548  0.170340  1
  O  O67  1  0.503334  0.721371  0.948812  1
  O  O68  1  0.343014  0.072873  0.122141  1
  O  O69  1  0.003334  0.778629  0.051188  1
  O  O70  1  0.818116  0.996517  0.595017  1
  O  O71  1  0.887616  0.913376  0.996431  1
  O  O72  1  0.534712  0.764509  0.515284  1
  O  O73  1  0.111531  0.125354  0.770891  1
  O  O74  1  0.917588  0.681548  0.170340  1
  O  O75  1  0.888339  0.218267  0.336132  1
  O  O76  1  0.033957  0.451428  0.196189  1
  O  O77  1  0.612384  0.413376  0.996431  1
  O  O78  1  0.388339  0.281733  0.663868  1
  O  O79  1  0.388469  0.625354  0.770891  1
  O  O80  1  0.533957  0.048572  0.803811  1
  O  O81  1  0.437664  0.846417  0.312483  1
  O  O82  1  0.561788  0.671736  0.642512  1
  O  O83  1  0.815990  0.117747  0.774187  1
  O  O84  1  0.984034  0.959053  0.723622  1
  O  O85  1  0.966043  0.548572  0.803811  1
  O  O86  1  0.181884  0.003483  0.404983  1
  O  O87  1  0.148118  0.405938  0.493924  1
  O  O88  1  0.438212  0.328264  0.357488  1
  O  O89  1  0.156986  0.572873  0.122141  1
  O  O90  1  0.112384  0.086624  0.003569  1
  O  O91  1  0.423528  0.378011  0.853948  1
  O  O92  1  0.851882  0.594062  0.506076  1
  O  O93  1  0.197759  0.734634  0.903623  1
  O  O94  1  0.929582  0.369120  0.701307  1
  O  O95  1  0.111721  0.011484  0.588840  1
  O  O96  1  0.189220  0.229711  0.390928  1
  O  O97  1  0.015966  0.040947  0.276378  1
  O  O98  1  0.965288  0.264509  0.515284  1
  O  O99  1  0.515966  0.459053  0.723622  1
  O  O100  1  0.121233  0.499911  0.929693  1
  O  O101  1  0.184010  0.882253  0.225813  1
  O  O102  1  0.898422  0.738700  0.879404  1
  O  O103  1  0.387616  0.586624  0.003569  1
  O  O104  1  0.684010  0.617747  0.774187  1
  O  O105  1  0.811944  0.086885  0.977676  1
  O  O106  1  0.656986  0.927127  0.877859  1
  O  O107  1  0.611531  0.374646  0.229109  1
  O  O108  1  0.484034  0.540947  0.276378  1
  O  O109  1  0.802241  0.265366  0.096377  1
  O  O110  1  0.291296  0.935556  0.751165  1
  O  O111  1  0.621233  0.000089  0.070307  1
  O  O112  1  0.358206  0.104122  0.549270  1
  O  O113  1  0.496666  0.278629  0.051188  1
  O  O114  1  0.611721  0.488516  0.411160  1
  O  O115  1  0.937664  0.653583  0.687517  1
  O  O116  1  0.034712  0.735491  0.484716  1
  O  O117  1  0.388279  0.511484  0.588840  1
  O  O118  1  0.061788  0.828264  0.357488  1
  O  O119  1  0.351882  0.905938  0.493924  1
  O  O120  1  0.843014  0.427127  0.877859  1
  O  O121  1  0.310780  0.729711  0.390928  1
  O  O122  1  0.111661  0.781733  0.663868  1
  O  O123  1  0.188056  0.913115  0.022324  1
  O  O124  1  0.315990  0.382253  0.225813  1
  O  O125  1  0.141794  0.604122  0.549270  1
  O  O126  1  0.318116  0.503483  0.404983  1
  O  O127  1  0.070418  0.630880  0.298693  1
  O  O128  1  0.708704  0.064444  0.248835  1
  O  O129  1  0.938212  0.171736  0.642512  1
  O  O130  1  0.688056  0.586885  0.977676  1
  O  O131  1  0.417588  0.818452  0.829660  1
  O  O132  1  0.378767  0.999911  0.929693  1
  O  O133  1  0.562336  0.153583  0.687517  1
  O  O134  1  0.923528  0.121989  0.146052  1
  O  O135  1  0.697759  0.765366  0.096377  1
