# generated using pymatgen
data_Ti13(Fe5O14)3
_symmetry_space_group_name_H-M   'P 1'
_cell_length_a   9.17742381
_cell_length_b   8.91016840
_cell_length_c   9.96179576
_cell_angle_alpha   81.63652831
_cell_angle_beta   104.51312385
_cell_angle_gamma   80.72321237
_symmetry_Int_Tables_number   1
_chemical_formula_structural   Ti13(Fe5O14)3
_chemical_formula_sum   'Ti13 Fe15 O42'
_cell_volume   763.42554502
_cell_formula_units_Z   1
loop_
 _symmetry_equiv_pos_site_id
 _symmetry_equiv_pos_as_xyz
  1  'x, y, z'
loop_
 _atom_site_type_symbol
 _atom_site_label
 _atom_site_symmetry_multiplicity
 _atom_site_fract_x
 _atom_site_fract_y
 _atom_site_fract_z
 _atom_site_occupancy
  Ti  Ti0  1  0.937381  0.983192  0.185238  1
  Ti  Ti1  1  0.794572  0.265861  0.614769  1
  Ti  Ti2  1  0.920699  0.307791  0.241363  1
  Ti  Ti3  1  0.773744  0.593001  0.667767  1
  Ti  Ti4  1  0.369926  0.120213  0.903451  1
  Ti  Ti5  1  0.490989  0.161065  0.527594  1
  Ti  Ti6  1  0.636622  0.876791  0.099337  1
  Ti  Ti7  1  0.651647  0.547586  0.043346  1
  Ti  Ti8  1  0.347427  0.448354  0.957370  1
  Ti  Ti9  1  0.078965  0.694690  0.757705  1
  Ti  Ti10  1  0.223115  0.408477  0.330245  1
  Ti  Ti11  1  0.061084  0.021918  0.811908  1
  Ti  Ti12  1  0.205161  0.737430  0.385076  1
  Fe  Fe13  1  0.842736  0.951081  0.454595  1
  Fe  Fe14  1  0.706282  0.235394  0.883404  1
  Fe  Fe15  1  0.725921  0.907966  0.830383  1
  Fe  Fe16  1  0.869565  0.621222  0.402696  1
  Fe  Fe17  1  0.988057  0.665736  0.026740  1
  Fe  Fe18  1  0.510535  0.835366  0.473527  1
  Fe  Fe19  1  0.420302  0.807753  0.740451  1
  Fe  Fe20  1  0.580621  0.190335  0.258307  1
  Fe  Fe21  1  0.436210  0.480364  0.686820  1
  Fe  Fe22  1  0.564556  0.525063  0.316787  1
  Fe  Fe23  1  0.149305  0.052710  0.543331  1
  Fe  Fe24  1  0.295194  0.765594  0.118280  1
  Fe  Fe25  1  0.279808  0.090605  0.173521  1
  Fe  Fe26  1  0.007874  0.340543  0.970646  1
  Fe  Fe27  1  0.135506  0.375026  0.600055  1
  O  O28  1  0.958353  0.859767  0.846971  1
  O  O29  1  0.940288  0.559296  0.841165  1
  O  O30  1  0.929405  0.192673  0.832184  1
  O  O31  1  0.930489  0.090095  0.599755  1
  O  O32  1  0.920382  0.727942  0.592981  1
  O  O33  1  0.902869  0.423896  0.583498  1
  O  O34  1  0.819398  0.143530  0.272471  1
  O  O35  1  0.676311  0.429229  0.705680  1
  O  O36  1  0.652611  0.132080  0.695725  1
  O  O37  1  0.795812  0.841831  0.263679  1
  O  O38  1  0.642834  0.764133  0.690195  1
  O  O39  1  0.783733  0.481552  0.256815  1
  O  O40  1  0.652659  0.653263  0.455929  1
  O  O41  1  0.503633  0.947278  0.881066  1
  O  O42  1  0.786107  0.376386  0.022196  1
  O  O43  1  0.632523  0.301396  0.448354  1
  O  O44  1  0.774580  0.013664  0.020635  1
  O  O45  1  0.487502  0.584365  0.878317  1
  O  O46  1  0.613318  0.005867  0.437773  1
  O  O47  1  0.465879  0.285658  0.865783  1
  O  O48  1  0.749777  0.712637  0.011685  1
  O  O49  1  0.248229  0.282047  0.995551  1
  O  O50  1  0.520327  0.719288  0.130354  1
  O  O51  1  0.386904  0.001539  0.560769  1
  O  O52  1  0.365003  0.697709  0.553143  1
  O  O53  1  0.230116  0.972216  0.983708  1
  O  O54  1  0.511860  0.415561  0.124086  1
  O  O55  1  0.351196  0.337747  0.543771  1
  O  O56  1  0.501830  0.052049  0.116680  1
  O  O57  1  0.220124  0.628370  0.982257  1
  O  O58  1  0.215530  0.518823  0.746253  1
  O  O59  1  0.358740  0.236851  0.312523  1
  O  O60  1  0.337798  0.869930  0.293412  1
  O  O61  1  0.205222  0.154966  0.739968  1
  O  O62  1  0.179363  0.858545  0.721019  1
  O  O63  1  0.322044  0.575389  0.288082  1
  O  O64  1  0.103226  0.574138  0.417790  1
  O  O65  1  0.081597  0.267359  0.408818  1
  O  O66  1  0.065575  0.908232  0.399120  1
  O  O67  1  0.074810  0.804888  0.162632  1
  O  O68  1  0.059975  0.442921  0.163821  1
  O  O69  1  0.038259  0.143771  0.148679  1
