# generated using pymatgen
data_Ti15VO24
_symmetry_space_group_name_H-M   'P 1'
_cell_length_a   5.53784601
_cell_length_b   9.10917384
_cell_length_c   9.11153414
_cell_angle_alpha   68.23323551
_cell_angle_beta   95.23778750
_cell_angle_gamma   95.19733850
_symmetry_Int_Tables_number   1
_chemical_formula_structural   Ti15VO24
_chemical_formula_sum   'Ti15 V1 O24'
_cell_volume   424.27884160
_cell_formula_units_Z   1
loop_
 _symmetry_equiv_pos_site_id
 _symmetry_equiv_pos_as_xyz
  1  'x, y, z'
loop_
 _atom_site_type_symbol
 _atom_site_label
 _atom_site_symmetry_multiplicity
 _atom_site_fract_x
 _atom_site_fract_y
 _atom_site_fract_z
 _atom_site_occupancy
  Ti  Ti0  1  0.690928  0.076605  0.077244  1
  Ti  Ti1  1  0.308579  0.172359  0.172905  1
  Ti  Ti2  1  0.192351  0.076750  0.578135  1
  Ti  Ti3  1  0.307290  0.422514  0.423737  1
  Ti  Ti4  1  0.690929  0.327450  0.327110  1
  Ti  Ti5  1  0.809588  0.173023  0.673206  1
  Ti  Ti6  1  0.192424  0.328117  0.827322  1
  Ti  Ti7  1  0.189961  0.576371  0.076214  1
  Ti  Ti8  1  0.809335  0.672903  0.172962  1
  Ti  Ti9  1  0.191087  0.825910  0.327791  1
  Ti  Ti10  1  0.693536  0.577459  0.575789  1
  Ti  Ti11  1  0.807856  0.422961  0.923148  1
  Ti  Ti12  1  0.808171  0.924288  0.422036  1
  Ti  Ti13  1  0.308902  0.922798  0.923950  1
  Ti  Ti14  1  0.690592  0.827417  0.825835  1
  V  V15  1  0.309577  0.672499  0.672200  1
  O  O16  1  0.157281  0.030806  0.376134  1
  O  O17  1  0.999156  0.218575  0.030550  1
  O  O18  1  0.999606  0.281851  0.469026  1
  O  O19  1  0.156998  0.125191  0.781929  1
  O  O20  1  0.655970  0.125499  0.280658  1
  O  O21  1  0.656138  0.030428  0.875423  1
  O  O22  1  0.342782  0.375097  0.219121  1
  O  O23  1  0.499844  0.219298  0.530697  1
  O  O24  1  0.156235  0.624707  0.281384  1
  O  O25  1  0.499686  0.280264  0.969375  1
  O  O26  1  0.344114  0.465021  0.625051  1
  O  O27  1  0.843156  0.469074  0.124757  1
  O  O28  1  0.155962  0.525913  0.882341  1
  O  O29  1  0.654261  0.530959  0.374936  1
  O  O30  1  0.990661  0.718967  0.525862  1
  O  O31  1  0.499098  0.718346  0.030512  1
  O  O32  1  0.843696  0.375994  0.718932  1
  O  O33  1  0.662210  0.624925  0.781688  1
  O  O34  1  0.502974  0.782457  0.465248  1
  O  O35  1  0.999465  0.781439  0.968538  1
  O  O36  1  0.343196  0.968098  0.125990  1
  O  O37  1  0.347025  0.882223  0.718421  1
  O  O38  1  0.844857  0.875791  0.219055  1
  O  O39  1  0.844523  0.969649  0.624788  1
