# generated using pymatgen
data_TiFeO3
_symmetry_space_group_name_H-M   'P 1'
_cell_length_a   5.60098473
_cell_length_b   5.63290669
_cell_length_c   44.21122076
_cell_angle_alpha   54.84026709
_cell_angle_beta   55.32774512
_cell_angle_gamma   54.40483091
_symmetry_Int_Tables_number   1
_chemical_formula_structural   TiFeO3
_chemical_formula_sum   'Ti16 Fe16 O48'
_cell_volume   868.10095568
_cell_formula_units_Z   16
loop_
 _symmetry_equiv_pos_site_id
 _symmetry_equiv_pos_as_xyz
  1  'x, y, z'
loop_
 _atom_site_type_symbol
 _atom_site_label
 _atom_site_symmetry_multiplicity
 _atom_site_fract_x
 _atom_site_fract_y
 _atom_site_fract_z
 _atom_site_occupancy
  Ti  Ti0  1  0.365667  0.367720  0.041575  1
  Ti  Ti1  1  0.344863  0.371780  0.167737  1
  Ti  Ti2  1  0.134030  0.143305  0.268939  1
  Ti  Ti3  1  0.850587  0.868379  0.106180  1
  Ti  Ti4  1  0.145044  0.144382  0.392886  1
  Ti  Ti5  1  0.859521  0.853560  0.231345  1
  Ti  Ti6  1  0.143015  0.143489  0.518662  1
  Ti  Ti7  1  0.853928  0.852711  0.357106  1
  Ti  Ti8  1  0.140639  0.142082  0.643592  1
  Ti  Ti9  1  0.855552  0.855931  0.481727  1
  Ti  Ti10  1  0.143941  0.146311  0.767975  1
  Ti  Ti11  1  0.851217  0.856598  0.607322  1
  Ti  Ti12  1  0.153587  0.140471  0.892552  1
  Ti  Ti13  1  0.853835  0.854727  0.731758  1
  Ti  Ti14  1  0.857150  0.850478  0.856929  1
  Ti  Ti15  1  0.839773  0.881833  0.980369  1
  Fe  Fe16  1  0.145802  0.144062  0.018245  1
  Fe  Fe17  1  0.148480  0.148930  0.141470  1
  Fe  Fe18  1  0.649794  0.647086  0.080101  1
  Fe  Fe19  1  0.348871  0.348437  0.293718  1
  Fe  Fe20  1  0.646274  0.636202  0.206106  1
  Fe  Fe21  1  0.352168  0.355416  0.419533  1
  Fe  Fe22  1  0.646947  0.646166  0.330155  1
  Fe  Fe23  1  0.349548  0.361817  0.544308  1
  Fe  Fe24  1  0.646651  0.641161  0.455990  1
  Fe  Fe25  1  0.349236  0.352286  0.668408  1
  Fe  Fe26  1  0.645046  0.641362  0.581402  1
  Fe  Fe27  1  0.347348  0.362856  0.794101  1
  Fe  Fe28  1  0.648811  0.641583  0.705846  1
  Fe  Fe29  1  0.357568  0.355539  0.919345  1
  Fe  Fe30  1  0.648566  0.639542  0.830783  1
  Fe  Fe31  1  0.640517  0.650953  0.956057  1
  O  O32  1  0.083054  0.707253  0.059180  1
  O  O33  1  0.466406  0.073312  0.089835  1
  O  O34  1  0.720866  0.453256  0.009970  1
  O  O35  1  0.211590  0.569649  0.121968  1
  O  O36  1  0.576799  0.966327  0.028049  1
  O  O37  1  0.068552  0.720995  0.182595  1
  O  O38  1  0.954633  0.208903  0.073783  1
  O  O39  1  0.430808  0.074291  0.219163  1
  O  O40  1  0.701161  0.452891  0.136389  1
  O  O41  1  0.215926  0.560313  0.245218  1
  O  O42  1  0.577749  0.952774  0.153551  1
  O  O43  1  0.059003  0.775954  0.303342  1
  O  O44  1  0.960693  0.203096  0.197389  1
  O  O45  1  0.440711  0.057344  0.346168  1
  O  O46  1  0.763511  0.436735  0.257655  1
  O  O47  1  0.219261  0.559395  0.369891  1
  O  O48  1  0.561386  0.948858  0.277779  1
  O  O49  1  0.049894  0.786833  0.428613  1
  O  O50  1  0.960100  0.211603  0.320201  1
  O  O51  1  0.436399  0.056115  0.471660  1
  O  O52  1  0.780936  0.445181  0.379353  1
  O  O53  1  0.218175  0.560709  0.494369  1
  O  O54  1  0.564556  0.944523  0.403091  1
  O  O55  1  0.051374  0.782494  0.553835  1
  O  O56  1  0.951732  0.214858  0.445588  1
  O  O57  1  0.438512  0.051770  0.597248  1
  O  O58  1  0.780340  0.442262  0.504934  1
  O  O59  1  0.216504  0.561980  0.619606  1
  O  O60  1  0.561909  0.945414  0.528569  1
  O  O61  1  0.058649  0.776996  0.678549  1
  O  O62  1  0.953530  0.214352  0.570589  1
  O  O63  1  0.440270  0.058137  0.721004  1
  O  O64  1  0.772772  0.441065  0.630928  1
  O  O65  1  0.218657  0.562985  0.743820  1
  O  O66  1  0.561138  0.955906  0.653161  1
  O  O67  1  0.056262  0.781436  0.802860  1
  O  O68  1  0.955732  0.216412  0.695795  1
  O  O69  1  0.440593  0.047587  0.846787  1
  O  O70  1  0.779567  0.441792  0.755335  1
  O  O71  1  0.222103  0.555039  0.870067  1
  O  O72  1  0.564996  0.948129  0.778190  1
  O  O73  1  0.061454  0.780111  0.929633  1
  O  O74  1  0.953601  0.211713  0.820357  1
  O  O75  1  0.471198  0.047405  0.967570  1
  O  O76  1  0.788769  0.439245  0.879053  1
  O  O77  1  0.204459  0.572290  0.996849  1
  O  O78  1  0.565712  0.946746  0.902158  1
  O  O79  1  0.944023  0.230412  0.946085  1
