# generated using pymatgen
data_Ti4Fe2O
_symmetry_space_group_name_H-M   'P 1'
_cell_length_a   8.03179906
_cell_length_b   8.03179882
_cell_length_c   8.03179971
_cell_angle_alpha   60.00000051
_cell_angle_beta   60.00000149
_cell_angle_gamma   60.00000493
_symmetry_Int_Tables_number   1
_chemical_formula_structural   Ti4Fe2O
_chemical_formula_sum   'Ti16 Fe8 O4'
_cell_volume   366.37307669
_cell_formula_units_Z   4
loop_
 _symmetry_equiv_pos_site_id
 _symmetry_equiv_pos_as_xyz
  1  'x, y, z'
loop_
 _atom_site_type_symbol
 _atom_site_label
 _atom_site_symmetry_multiplicity
 _atom_site_fract_x
 _atom_site_fract_y
 _atom_site_fract_z
 _atom_site_occupancy
  Ti  Ti0  1  0.311599  0.938401  0.938401  1
  Ti  Ti1  1  0.061599  0.061599  0.688401  1
  Ti  Ti2  1  0.688401  0.688401  0.061599  1
  Ti  Ti3  1  0.061599  0.688401  0.688401  1
  Ti  Ti4  1  0.061599  0.688401  0.061599  1
  Ti  Ti5  1  0.688401  0.061599  0.688401  1
  Ti  Ti6  1  0.938401  0.311599  0.938401  1
  Ti  Ti7  1  0.938401  0.938401  0.311599  1
  Ti  Ti8  1  0.311599  0.311599  0.938401  1
  Ti  Ti9  1  0.311599  0.938401  0.311599  1
  Ti  Ti10  1  0.688401  0.061599  0.061599  1
  Ti  Ti11  1  0.938401  0.311599  0.311599  1
  Fe  Fe12  1  0.289133  0.289133  0.289133  1
  Fe  Fe13  1  0.710867  0.710867  0.367400  1
  Fe  Fe14  1  0.367400  0.710867  0.710867  1
  Fe  Fe15  1  0.710867  0.367400  0.710867  1
  Fe  Fe16  1  0.632600  0.289133  0.289133  1
  Fe  Fe17  1  0.289133  0.632600  0.289133  1
  Fe  Fe18  1  0.289133  0.289133  0.632600  1
  Fe  Fe19  1  0.710867  0.710867  0.710867  1
  Ti  Ti20  1  0.500000  0.500000  0.500000  1
  Ti  Ti21  1  0.500000  0.500000  0.000000  1
  Ti  Ti22  1  0.000000  0.500000  0.500000  1
  Ti  Ti23  1  0.500000  0.000000  0.500000  1
  O  O24  1  0.000000  0.000000  0.000000  1
  O  O25  1  0.000000  0.000000  0.500000  1
  O  O26  1  0.500000  0.000000  0.000000  1
  O  O27  1  0.000000  0.500000  0.000000  1
