# generated using pymatgen
data_Ti(CoO2)2
_symmetry_space_group_name_H-M   'P 1'
_cell_length_a   6.05082639
_cell_length_b   6.05082650
_cell_length_c   6.00578042
_cell_angle_alpha   60.24596753
_cell_angle_beta   60.24596694
_cell_angle_gamma   59.63006478
_symmetry_Int_Tables_number   1
_chemical_formula_structural   Ti(CoO2)2
_chemical_formula_sum   'Ti2 Co4 O8'
_cell_volume   155.61472944
_cell_formula_units_Z   2
loop_
 _symmetry_equiv_pos_site_id
 _symmetry_equiv_pos_as_xyz
  1  'x, y, z'
loop_
 _atom_site_type_symbol
 _atom_site_label
 _atom_site_symmetry_multiplicity
 _atom_site_fract_x
 _atom_site_fract_y
 _atom_site_fract_z
 _atom_site_occupancy
  Ti  Ti0  1  0.125000  0.625000  0.625000  1
  Ti  Ti1  1  0.625000  0.125000  0.625000  1
  Co  Co2  1  0.009470  0.009470  0.990530  1
  Co  Co3  1  0.240530  0.240530  0.259470  1
  Co  Co4  1  0.625000  0.625000  0.125000  1
  Co  Co5  1  0.625000  0.625000  0.625000  1
  O  O6  1  0.372411  0.372411  0.405839  1
  O  O7  1  0.366822  0.839605  0.396787  1
  O  O8  1  0.372411  0.372411  0.849338  1
  O  O9  1  0.839605  0.366822  0.396787  1
  O  O10  1  0.410395  0.883178  0.853213  1
  O  O11  1  0.883178  0.410395  0.853213  1
  O  O12  1  0.877589  0.877589  0.400662  1
  O  O13  1  0.877589  0.877589  0.844161  1
