# generated using pymatgen
data_TiFeO3
_symmetry_space_group_name_H-M   'P 1'
_cell_length_a   2.92056583
_cell_length_b   5.01185850
_cell_length_c   7.25684489
_cell_angle_alpha   90.00000000
_cell_angle_beta   90.00000000
_cell_angle_gamma   106.93972722
_symmetry_Int_Tables_number   1
_chemical_formula_structural   TiFeO3
_chemical_formula_sum   'Ti2 Fe2 O6'
_cell_volume   101.61302263
_cell_formula_units_Z   2
loop_
 _symmetry_equiv_pos_site_id
 _symmetry_equiv_pos_as_xyz
  1  'x, y, z'
loop_
 _atom_site_type_symbol
 _atom_site_label
 _atom_site_symmetry_multiplicity
 _atom_site_fract_x
 _atom_site_fract_y
 _atom_site_fract_z
 _atom_site_occupancy
  O  O0  1  0.369313  0.738625  0.434877  1
  O  O1  1  0.369313  0.738625  0.065122  1
  O  O2  1  0.915781  0.831564  0.750000  1
  O  O3  1  0.630686  0.261374  0.934877  1
  O  O4  1  0.630686  0.261374  0.565122  1
  O  O5  1  0.084218  0.168435  0.250000  1
  Ti  Ti6  1  0.000000  0.000000  0.000000  1
  Ti  Ti7  1  0.000000  0.000000  0.500000  1
  Fe  Fe8  1  0.746965  0.493933  0.250000  1
  Fe  Fe9  1  0.253033  0.506067  0.750000  1
