# generated using pymatgen
data_TiFe2O5
_symmetry_space_group_name_H-M   'P 1'
_cell_length_a   5.08650004
_cell_length_b   5.72538667
_cell_length_c   7.16924514
_cell_angle_alpha   109.12985636
_cell_angle_beta   90.00000000
_cell_angle_gamma   116.37253786
_symmetry_Int_Tables_number   1
_chemical_formula_structural   TiFe2O5
_chemical_formula_sum   'Ti2 Fe4 O10'
_cell_volume   174.09224199
_cell_formula_units_Z   2
loop_
 _symmetry_equiv_pos_site_id
 _symmetry_equiv_pos_as_xyz
  1  'x, y, z'
loop_
 _atom_site_type_symbol
 _atom_site_label
 _atom_site_symmetry_multiplicity
 _atom_site_fract_x
 _atom_site_fract_y
 _atom_site_fract_z
 _atom_site_occupancy
  O  O0  1  0.190670  0.000000  0.250000  1
  O  O1  1  0.809330  0.000000  0.750000  1
  O  O2  1  0.588323  0.838915  0.051652  1
  O  O3  1  0.749408  0.161085  0.448348  1
  O  O4  1  0.411677  0.161085  0.948348  1
  O  O5  1  0.250592  0.838915  0.551652  1
  O  O6  1  0.035446  0.367535  0.150060  1
  O  O7  1  0.667911  0.632465  0.349940  1
  O  O8  1  0.964554  0.632465  0.849940  1
  O  O9  1  0.332089  0.367535  0.650060  1
  Ti  Ti10  1  0.000000  0.000000  0.500000  1
  Ti  Ti11  1  0.000000  0.000000  0.000000  1
  Fe  Fe12  1  0.363407  0.734358  0.774140  1
  Fe  Fe13  1  0.629048  0.265642  0.725860  1
  Fe  Fe14  1  0.636593  0.265642  0.225860  1
  Fe  Fe15  1  0.370952  0.734358  0.274140  1
