# generated using pymatgen
data_TiFe2O5
_symmetry_space_group_name_H-M   'P 1'
_cell_length_a   3.79520449
_cell_length_b   5.32951972
_cell_length_c   10.02789855
_cell_angle_alpha   90.00000000
_cell_angle_beta   90.00000000
_cell_angle_gamma   110.85811786
_symmetry_Int_Tables_number   1
_chemical_formula_structural   TiFe2O5
_chemical_formula_sum   'Ti2 Fe4 O10'
_cell_volume   189.53796914
_cell_formula_units_Z   2
loop_
 _symmetry_equiv_pos_site_id
 _symmetry_equiv_pos_as_xyz
  1  'x, y, z'
loop_
 _atom_site_type_symbol
 _atom_site_label
 _atom_site_symmetry_multiplicity
 _atom_site_fract_x
 _atom_site_fract_y
 _atom_site_fract_z
 _atom_site_occupancy
  O  O0  1  0.305979  0.611957  0.578590  1
  O  O1  1  0.694021  0.388043  0.421411  1
  O  O2  1  0.694021  0.388043  0.078590  1
  O  O3  1  0.305979  0.611957  0.921410  1
  O  O4  1  0.046986  0.093971  0.619776  1
  O  O5  1  0.953014  0.906029  0.380223  1
  O  O6  1  0.745865  0.491731  0.750000  1
  O  O7  1  0.254135  0.508269  0.250000  1
  O  O8  1  0.953014  0.906029  0.119777  1
  O  O9  1  0.046986  0.093971  0.880224  1
  Ti  Ti10  1  0.181282  0.362563  0.750000  1
  Ti  Ti11  1  0.818718  0.637437  0.250000  1
  Fe  Fe12  1  0.140695  0.281389  0.439583  1
  Fe  Fe13  1  0.859305  0.718611  0.560418  1
  Fe  Fe14  1  0.859305  0.718611  0.939582  1
  Fe  Fe15  1  0.140695  0.281389  0.060418  1
