# generated using pymatgen
data_Ti(FeO2)2
_symmetry_space_group_name_H-M   'P 1'
_cell_length_a   6.16404087
_cell_length_b   6.16404079
_cell_length_c   6.09884691
_cell_angle_alpha   60.34926066
_cell_angle_beta   60.34926112
_cell_angle_gamma   59.08113920
_symmetry_Int_Tables_number   1
_chemical_formula_structural   Ti(FeO2)2
_chemical_formula_sum   'Ti2 Fe4 O8'
_cell_volume   163.53045599
_cell_formula_units_Z   2
loop_
 _symmetry_equiv_pos_site_id
 _symmetry_equiv_pos_as_xyz
  1  'x, y, z'
loop_
 _atom_site_type_symbol
 _atom_site_label
 _atom_site_symmetry_multiplicity
 _atom_site_fract_x
 _atom_site_fract_y
 _atom_site_fract_z
 _atom_site_occupancy
  Ti  Ti0  1  0.000000  0.500000  0.500000  1
  Ti  Ti1  1  0.500000  0.000000  0.500000  1
  Fe  Fe2  1  0.119141  0.119141  0.130859  1
  Fe  Fe3  1  0.500000  0.500000  0.000000  1
  Fe  Fe4  1  0.500000  0.500000  0.500000  1
  Fe  Fe5  1  0.880859  0.880859  0.869141  1
  O  O6  1  0.250036  0.250036  0.281124  1
  O  O7  1  0.250036  0.250036  0.718805  1
  O  O8  1  0.232245  0.714426  0.276664  1
  O  O9  1  0.714426  0.232245  0.276664  1
  O  O10  1  0.285574  0.767755  0.723336  1
  O  O11  1  0.767755  0.285574  0.723336  1
  O  O12  1  0.749964  0.749964  0.281195  1
  O  O13  1  0.749964  0.749964  0.718876  1
