# generated using pymatgen
data_TiHgO3
_symmetry_space_group_name_H-M   'P 1'
_cell_length_a   5.57751058
_cell_length_b   5.57751058
_cell_length_c   5.57751058
_cell_angle_alpha   58.45234937
_cell_angle_beta   58.45234939
_cell_angle_gamma   58.45234934
_symmetry_Int_Tables_number   1
_chemical_formula_structural   TiHgO3
_chemical_formula_sum   'Ti2 Hg2 O6'
_cell_volume   118.34433816
_cell_formula_units_Z   2
loop_
 _symmetry_equiv_pos_site_id
 _symmetry_equiv_pos_as_xyz
  1  'x, y, z'
loop_
 _atom_site_type_symbol
 _atom_site_label
 _atom_site_symmetry_multiplicity
 _atom_site_fract_x
 _atom_site_fract_y
 _atom_site_fract_z
 _atom_site_occupancy
  O  O0  1  0.167968  0.750000  0.332032  1
  O  O1  1  0.750000  0.332032  0.167968  1
  O  O2  1  0.332032  0.167968  0.750000  1
  O  O3  1  0.832032  0.250000  0.667968  1
  O  O4  1  0.667968  0.832032  0.250000  1
  O  O5  1  0.250000  0.667968  0.832032  1
  Ti  Ti6  1  0.500000  0.500000  0.500000  1
  Ti  Ti7  1  0.000000  0.000000  0.000000  1
  Hg  Hg8  1  0.750000  0.750000  0.750000  1
  Hg  Hg9  1  0.250000  0.250000  0.250000  1
