# generated using pymatgen
data_TiMnO3
_symmetry_space_group_name_H-M   'P 1'
_cell_length_a   10.34066148
_cell_length_b   3.27187068
_cell_length_c   6.68026454
_cell_angle_alpha   116.99868137
_cell_angle_beta   145.19947729
_cell_angle_gamma   63.19843968
_symmetry_Int_Tables_number   1
_chemical_formula_structural   TiMnO3
_chemical_formula_sum   'Ti2 Mn2 O6'
_cell_volume   113.56931444
_cell_formula_units_Z   2
loop_
 _symmetry_equiv_pos_site_id
 _symmetry_equiv_pos_as_xyz
  1  'x, y, z'
loop_
 _atom_site_type_symbol
 _atom_site_label
 _atom_site_symmetry_multiplicity
 _atom_site_fract_x
 _atom_site_fract_y
 _atom_site_fract_z
 _atom_site_occupancy
  Ti  Ti0  1  0.257060  0.304488  0.683628  1
  Ti  Ti1  1  0.742940  0.695512  0.316372  1
  Mn  Mn2  1  0.780468  0.752951  0.894270  1
  Mn  Mn3  1  0.219532  0.247049  0.105730  1
  O  O4  1  0.206892  0.636319  0.425353  1
  O  O5  1  0.422683  0.910143  0.055663  1
  O  O6  1  0.897088  0.374557  0.206021  1
  O  O7  1  0.793108  0.363681  0.574647  1
  O  O8  1  0.577317  0.089857  0.944337  1
  O  O9  1  0.102912  0.625443  0.793979  1
