# generated using pymatgen
data_TiZn2O4
_symmetry_space_group_name_H-M   'P 1'
_cell_length_a   6.09000530
_cell_length_b   6.02377722
_cell_length_c   6.09000512
_cell_angle_alpha   60.35909486
_cell_angle_beta   58.72054688
_cell_angle_gamma   60.35909074
_symmetry_Int_Tables_number   1
_chemical_formula_structural   TiZn2O4
_chemical_formula_sum   'Ti2 Zn4 O8'
_cell_volume   157.21911793
_cell_formula_units_Z   2
loop_
 _symmetry_equiv_pos_site_id
 _symmetry_equiv_pos_as_xyz
  1  'x, y, z'
loop_
 _atom_site_type_symbol
 _atom_site_label
 _atom_site_symmetry_multiplicity
 _atom_site_fract_x
 _atom_site_fract_y
 _atom_site_fract_z
 _atom_site_occupancy
  O  O0  1  0.275277  0.238407  0.275277  1
  O  O1  1  0.275277  0.711039  0.275277  1
  O  O2  1  0.281054  0.245910  0.727125  1
  O  O3  1  0.727125  0.245910  0.281054  1
  O  O4  1  0.272875  0.754090  0.718946  1
  O  O5  1  0.718946  0.754090  0.272875  1
  O  O6  1  0.724723  0.288961  0.724723  1
  O  O7  1  0.724723  0.761593  0.724723  1
  Ti  Ti8  1  0.500000  0.000000  0.500000  1
  Ti  Ti9  1  0.500000  0.500000  0.500000  1
  Zn  Zn10  1  0.138955  0.111045  0.138955  1
  Zn  Zn11  1  0.500000  0.500000  0.000000  1
  Zn  Zn12  1  0.000000  0.500000  0.500000  1
  Zn  Zn13  1  0.861045  0.888955  0.861045  1
