# generated using pymatgen
data_TiNbO4
_symmetry_space_group_name_H-M   'P 1'
_cell_length_a   7.40348764
_cell_length_b   5.66377354
_cell_length_c   5.66377354
_cell_angle_alpha   73.73762174
_cell_angle_beta   70.90167143
_cell_angle_gamma   70.90167143
_symmetry_Int_Tables_number   1
_chemical_formula_structural   TiNbO4
_chemical_formula_sum   'Ti3 Nb3 O12'
_cell_volume   208.04994218
_cell_formula_units_Z   3
loop_
 _symmetry_equiv_pos_site_id
 _symmetry_equiv_pos_as_xyz
  1  'x, y, z'
loop_
 _atom_site_type_symbol
 _atom_site_label
 _atom_site_symmetry_multiplicity
 _atom_site_fract_x
 _atom_site_fract_y
 _atom_site_fract_z
 _atom_site_occupancy
  Ti  Ti0  1  0.671134  0.327950  0.327950  1
  Ti  Ti1  1  0.158649  0.337329  0.337329  1
  Ti  Ti2  1  0.002176  0.008463  0.008463  1
  Nb  Nb3  1  0.834956  0.664181  0.664181  1
  Nb  Nb4  1  0.328079  0.661786  0.661786  1
  Nb  Nb5  1  0.505485  0.997919  0.997919  1
  O  O6  1  0.664753  0.042065  0.627726  1
  O  O7  1  0.330195  0.367397  0.972603  1
  O  O8  1  0.630630  0.566247  0.566247  1
  O  O9  1  0.964446  0.232291  0.232291  1
  O  O10  1  0.298267  0.900063  0.900063  1
  O  O11  1  0.706903  0.100800  0.100800  1
  O  O12  1  0.029507  0.772456  0.772456  1
  O  O13  1  0.369403  0.430329  0.430329  1
  O  O14  1  0.330195  0.972603  0.367397  1
  O  O15  1  0.664753  0.627726  0.042065  1
  O  O16  1  0.005234  0.294378  0.696017  1
  O  O17  1  0.005234  0.696017  0.294378  1
