# generated using pymatgen
data_TiNb2O7
_symmetry_space_group_name_H-M   'P 1'
_cell_length_a   11.52320099
_cell_length_b   10.56787408
_cell_length_c   3.82796980
_cell_angle_alpha   100.43462881
_cell_angle_beta   99.56104947
_cell_angle_gamma   66.65761677
_symmetry_Int_Tables_number   1
_chemical_formula_structural   TiNb2O7
_chemical_formula_sum   'Ti3 Nb6 O21'
_cell_volume   418.61915763
_cell_formula_units_Z   3
loop_
 _symmetry_equiv_pos_site_id
 _symmetry_equiv_pos_as_xyz
  1  'x, y, z'
loop_
 _atom_site_type_symbol
 _atom_site_label
 _atom_site_symmetry_multiplicity
 _atom_site_fract_x
 _atom_site_fract_y
 _atom_site_fract_z
 _atom_site_occupancy
  Ti  Ti0  1  0.358599  0.483352  0.920976  1
  Ti  Ti1  1  0.001974  0.998284  0.000129  1
  Ti  Ti2  1  0.636588  0.781169  0.708879  1
  Nb  Nb3  1  0.368072  0.845182  0.106627  1
  Nb  Nb4  1  -0.000082  0.361829  0.180873  1
  Nb  Nb5  1  0.365984  0.222239  0.294112  1
  Nb  Nb6  1  0.632054  0.522018  0.077036  1
  Nb  Nb7  1  0.996472  0.639914  0.818193  1
  Nb  Nb8  1  0.637183  0.143307  0.890245  1
  O  O9  1  0.197097  0.902357  0.049728  1
  O  O10  1  0.003455  0.412870  0.708163  1
  O  O11  1  0.189527  0.560020  0.874774  1
  O  O12  1  0.420066  0.835544  0.627805  1
  O  O13  1  0.015894  0.182565  0.099230  1
  O  O14  1  0.618415  0.964945  0.791680  1
  O  O15  1  0.416619  0.631699  0.024159  1
  O  O16  1  0.192391  0.305871  0.249132  1
  O  O17  1  0.000205  0.000512  0.500358  1
  O  O18  1  0.597971  0.748648  0.173309  1
  O  O19  1  0.376275  0.429104  0.402689  1
  O  O20  1  0.621806  0.573469  0.597637  1
  O  O21  1  0.403776  0.250917  0.827346  1
  O  O22  1  0.804103  0.696397  0.750251  1
  O  O23  1  0.585006  0.365830  0.975418  1
  O  O24  1  0.383480  0.035685  0.209583  1
  O  O25  1  0.984672  0.818392  0.901532  1
  O  O26  1  0.580226  0.166290  0.373258  1
  O  O27  1  0.809448  0.439741  0.124595  1
  O  O28  1  0.996323  0.585090  0.290707  1
  O  O29  1  0.806396  0.096757  0.951577  1
