# generated using pymatgen
data_TiWO4
_symmetry_space_group_name_H-M   'P 1'
_cell_length_a   4.71396571
_cell_length_b   14.18244989
_cell_length_c   3.12368143
_cell_angle_alpha   90.00000000
_cell_angle_beta   90.00000000
_cell_angle_gamma   89.95337980
_symmetry_Int_Tables_number   1
_chemical_formula_structural   TiWO4
_chemical_formula_sum   'Ti3 W3 O12'
_cell_volume   208.83547251
_cell_formula_units_Z   3
loop_
 _symmetry_equiv_pos_site_id
 _symmetry_equiv_pos_as_xyz
  1  'x, y, z'
loop_
 _atom_site_type_symbol
 _atom_site_label
 _atom_site_symmetry_multiplicity
 _atom_site_fract_x
 _atom_site_fract_y
 _atom_site_fract_z
 _atom_site_occupancy
  Ti  Ti0  1  0.002335  0.325594  0.005424  1
  Ti  Ti1  1  0.997665  0.007740  0.005424  1
  Ti  Ti2  1  0.500000  0.166667  0.501834  1
  W  W3  1  0.000000  0.666667  0.013283  1
  W  W4  1  0.499829  0.492082  0.511489  1
  W  W5  1  0.500171  0.841252  0.511489  1
  O  O6  1  0.187792  0.263401  0.507681  1
  O  O7  1  0.207756  0.598206  0.513226  1
  O  O8  1  0.192500  0.942766  0.508913  1
  O  O9  1  0.313077  0.103056  0.007412  1
  O  O10  1  0.295146  0.771552  0.012624  1
  O  O11  1  0.289215  0.424708  0.010305  1
  O  O12  1  0.686923  0.230278  0.007412  1
  O  O13  1  0.704854  0.561782  0.012624  1
  O  O14  1  0.710785  0.908625  0.010305  1
  O  O15  1  0.812208  0.069932  0.507681  1
  O  O16  1  0.807500  0.390567  0.508913  1
  O  O17  1  0.792244  0.735127  0.513226  1
