# generated using pymatgen
data_Ti3Zn2O8
_symmetry_space_group_name_H-M   'P 1'
_cell_length_a   5.92000854
_cell_length_b   6.01333208
_cell_length_c   6.01333207
_cell_angle_alpha   60.00000298
_cell_angle_beta   59.47714831
_cell_angle_gamma   59.47714831
_symmetry_Int_Tables_number   1
_chemical_formula_structural   Ti3Zn2O8
_chemical_formula_sum   'Ti3 Zn2 O8'
_cell_volume   150.16196440
_cell_formula_units_Z   1
loop_
 _symmetry_equiv_pos_site_id
 _symmetry_equiv_pos_as_xyz
  1  'x, y, z'
loop_
 _atom_site_type_symbol
 _atom_site_label
 _atom_site_symmetry_multiplicity
 _atom_site_fract_x
 _atom_site_fract_y
 _atom_site_fract_z
 _atom_site_occupancy
  O  O0  1  0.417370  0.372513  0.372513  1
  O  O1  1  0.417370  0.372513  0.837604  1
  O  O2  1  0.417370  0.837604  0.372513  1
  O  O3  1  0.854646  0.381785  0.381785  1
  O  O4  1  0.395354  0.868215  0.868215  1
  O  O5  1  0.832630  0.877487  0.412396  1
  O  O6  1  0.832630  0.412396  0.877487  1
  O  O7  1  0.832630  0.877487  0.877487  1
  Ti  Ti8  1  0.625000  0.125000  0.625000  1
  Ti  Ti9  1  0.625000  0.625000  0.125000  1
  Ti  Ti10  1  0.625000  0.625000  0.625000  1
  Zn  Zn11  1  0.971686  0.009438  0.009438  1
  Zn  Zn12  1  0.278314  0.240562  0.240562  1
