# generated using pymatgen
data_Ti2CdO6
_symmetry_space_group_name_H-M   'P 1'
_cell_length_a   5.95718169
_cell_length_b   6.47570622
_cell_length_c   6.09211552
_cell_angle_alpha   89.89568155
_cell_angle_beta   89.94945942
_cell_angle_gamma   84.79266345
_symmetry_Int_Tables_number   1
_chemical_formula_structural   Ti2CdO6
_chemical_formula_sum   'Ti4 Cd2 O12'
_cell_volume   234.04488089
_cell_formula_units_Z   2
loop_
 _symmetry_equiv_pos_site_id
 _symmetry_equiv_pos_as_xyz
  1  'x, y, z'
loop_
 _atom_site_type_symbol
 _atom_site_label
 _atom_site_symmetry_multiplicity
 _atom_site_fract_x
 _atom_site_fract_y
 _atom_site_fract_z
 _atom_site_occupancy
  Ti  Ti0  1  0.002567  0.839914  0.646665  1
  Ti  Ti1  1  0.541200  0.529245  0.721672  1
  Ti  Ti2  1  0.460598  0.470111  0.221770  1
  Ti  Ti3  1  0.000390  0.160994  0.146387  1
  Cd  Cd4  1  0.912372  0.667021  0.151676  1
  Cd  Cd5  1  0.088725  0.334031  0.652014  1
  O  O6  1  0.481708  0.277945  0.499468  1
  O  O7  1  0.350535  0.390243  0.909956  1
  O  O8  1  0.317844  0.745974  0.131643  1
  O  O9  1  0.261242  0.693704  0.610914  1
  O  O10  1  0.959047  0.957791  0.357319  1
  O  O11  1  0.854959  0.629431  0.784744  1
  O  O12  1  0.146429  0.371313  0.285784  1
  O  O13  1  0.043457  0.042398  0.857483  1
  O  O14  1  0.741363  0.306506  0.110176  1
  O  O15  1  0.683562  0.253303  0.632051  1
  O  O16  1  0.650864  0.608826  0.409422  1
  O  O17  1  0.519738  0.721250  0.998856  1
