# generated using pymatgen
data_Ti2CoO5
_symmetry_space_group_name_H-M   'P 1'
_cell_length_a   3.75305168
_cell_length_b   5.25369451
_cell_length_c   10.19630949
_cell_angle_alpha   90.00000000
_cell_angle_beta   90.00000000
_cell_angle_gamma   110.92724203
_symmetry_Int_Tables_number   1
_chemical_formula_structural   Ti2CoO5
_chemical_formula_sum   'Ti4 Co2 O10'
_cell_volume   187.78262471
_cell_formula_units_Z   2
loop_
 _symmetry_equiv_pos_site_id
 _symmetry_equiv_pos_as_xyz
  1  'x, y, z'
loop_
 _atom_site_type_symbol
 _atom_site_label
 _atom_site_symmetry_multiplicity
 _atom_site_fract_x
 _atom_site_fract_y
 _atom_site_fract_z
 _atom_site_occupancy
  Ti  Ti0  1  0.133857  0.267714  0.567820  1
  Ti  Ti1  1  0.133857  0.267714  0.932180  1
  Ti  Ti2  1  0.866143  0.732286  0.067820  1
  Ti  Ti3  1  0.866143  0.732286  0.432180  1
  Co  Co4  1  0.189959  0.379919  0.250000  1
  Co  Co5  1  0.810041  0.620081  0.750000  1
  O  O6  1  0.046109  0.092216  0.111964  1
  O  O7  1  0.313888  0.627776  0.060577  1
  O  O8  1  0.046109  0.092216  0.388036  1
  O  O9  1  0.313888  0.627776  0.439423  1
  O  O10  1  0.214254  0.428508  0.750000  1
  O  O11  1  0.785746  0.571492  0.250000  1
  O  O12  1  0.686112  0.372224  0.560577  1
  O  O13  1  0.953891  0.907784  0.888036  1
  O  O14  1  0.686112  0.372224  0.939423  1
  O  O15  1  0.953891  0.907784  0.611964  1
