# generated using pymatgen
data_Ti(FeO2)2
_symmetry_space_group_name_H-M   'P 1'
_cell_length_a   6.11524579
_cell_length_b   6.11524548
_cell_length_c   10.46076088
_cell_angle_alpha   74.55448539
_cell_angle_beta   74.55448607
_cell_angle_gamma   60.81059354
_symmetry_Int_Tables_number   1
_chemical_formula_structural   Ti(FeO2)2
_chemical_formula_sum   'Ti4 Fe8 O16'
_cell_volume   324.82638239
_cell_formula_units_Z   4
loop_
 _symmetry_equiv_pos_site_id
 _symmetry_equiv_pos_as_xyz
  1  'x, y, z'
loop_
 _atom_site_type_symbol
 _atom_site_label
 _atom_site_symmetry_multiplicity
 _atom_site_fract_x
 _atom_site_fract_y
 _atom_site_fract_z
 _atom_site_occupancy
  Ti  Ti0  1  0.010596  0.989404  0.500000  1
  Ti  Ti1  1  0.489404  0.510596  1.000000  1
  Ti  Ti2  1  0.750000  0.250000  0.250000  1
  Ti  Ti3  1  0.750000  0.250000  0.750000  1
  Fe  Fe4  1  0.250000  0.250000  0.250000  1
  Fe  Fe5  1  0.183857  0.184922  0.941202  1
  Fe  Fe6  1  0.316143  0.315078  0.558798  1
  Fe  Fe7  1  0.250000  0.750000  0.250000  1
  Fe  Fe8  1  0.250000  0.750000  0.750000  1
  Fe  Fe9  1  0.684922  0.683857  0.441202  1
  Fe  Fe10  1  0.815078  0.816143  0.058798  1
  Fe  Fe11  1  0.750000  0.750000  0.750000  1
  O  O12  1  0.096517  0.120192  0.145733  1
  O  O13  1  0.086085  0.135421  0.626059  1
  O  O14  1  0.168060  0.597399  0.111350  1
  O  O15  1  0.097399  0.668060  0.611350  1
  O  O16  1  0.403483  0.379808  0.354267  1
  O  O17  1  0.626081  0.156257  0.125615  1
  O  O18  1  0.331940  0.902601  0.388650  1
  O  O19  1  0.635421  0.586085  0.126059  1
  O  O20  1  0.413915  0.364579  0.873941  1
  O  O21  1  0.656257  0.126081  0.625614  1
  O  O22  1  0.620192  0.596517  0.645733  1
  O  O23  1  0.402601  0.831940  0.888650  1
  O  O24  1  0.873919  0.343743  0.374386  1
  O  O25  1  0.843743  0.373919  0.874386  1
  O  O26  1  0.864579  0.913915  0.373941  1
  O  O27  1  0.879808  0.903483  0.854267  1
