# generated using pymatgen
data_Ti2Fe4O9
_symmetry_space_group_name_H-M   'P 1'
_cell_length_a   5.51850505
_cell_length_b   16.61958229
_cell_length_c   9.83629229
_cell_angle_alpha   27.62710689
_cell_angle_beta   50.22319087
_cell_angle_gamma   55.61519592
_symmetry_Int_Tables_number   1
_chemical_formula_structural   Ti2Fe4O9
_chemical_formula_sum   'Ti4 Fe8 O18'
_cell_volume   321.50275956
_cell_formula_units_Z   2
loop_
 _symmetry_equiv_pos_site_id
 _symmetry_equiv_pos_as_xyz
  1  'x, y, z'
loop_
 _atom_site_type_symbol
 _atom_site_label
 _atom_site_symmetry_multiplicity
 _atom_site_fract_x
 _atom_site_fract_y
 _atom_site_fract_z
 _atom_site_occupancy
  Ti  Ti0  1  0.346134  0.006686  0.348777  1
  Ti  Ti1  1  0.842942  0.336181  0.849315  1
  Ti  Ti2  1  0.869241  0.661514  0.855428  1
  Ti  Ti3  1  0.836782  0.004084  0.858698  1
  Fe  Fe4  1  0.143160  0.000827  0.139442  1
  Fe  Fe5  1  0.151565  0.335315  0.148857  1
  Fe  Fe6  1  0.361507  0.329732  0.357523  1
  Fe  Fe7  1  0.149386  0.668046  0.139971  1
  Fe  Fe8  1  0.358611  0.660977  0.361590  1
  Fe  Fe9  1  0.637868  0.337550  0.640553  1
  Fe  Fe10  1  0.659113  0.664386  0.648705  1
  Fe  Fe11  1  0.640763  0.999141  0.646593  1
  O  O12  1  0.068669  0.090780  0.450073  1
  O  O13  1  0.712039  0.127226  0.077018  1
  O  O14  1  0.577019  0.228231  0.237797  1
  O  O15  1  0.048944  0.433828  0.459924  1
  O  O16  1  0.481725  0.089910  0.749526  1
  O  O17  1  0.745831  0.477841  0.039621  1
  O  O18  1  0.216354  0.200203  0.964240  1
  O  O19  1  0.562710  0.584320  0.209200  1
  O  O20  1  0.053981  0.758526  0.458946  1
  O  O21  1  0.949988  0.217164  0.570540  1
  O  O22  1  0.452119  0.443247  0.741899  1
  O  O23  1  0.750091  0.794100  0.060449  1
  O  O24  1  0.241990  0.551839  0.927651  1
  O  O25  1  0.581200  0.901594  0.239038  1
  O  O26  1  0.948989  0.554830  0.570063  1
  O  O27  1  0.440004  0.781488  0.727921  1
  O  O28  1  0.230493  0.874195  0.943797  1
  O  O29  1  0.940784  0.886239  0.576842  1
