# generated using pymatgen
data_TiMnO3
_symmetry_space_group_name_H-M   'P 1'
_cell_length_a   5.21060323
_cell_length_b   5.40319684
_cell_length_c   7.56921009
_cell_angle_alpha   90.00000000
_cell_angle_beta   90.00000000
_cell_angle_gamma   90.00000000
_symmetry_Int_Tables_number   1
_chemical_formula_structural   TiMnO3
_chemical_formula_sum   'Ti4 Mn4 O12'
_cell_volume   213.10289679
_cell_formula_units_Z   4
loop_
 _symmetry_equiv_pos_site_id
 _symmetry_equiv_pos_as_xyz
  1  'x, y, z'
loop_
 _atom_site_type_symbol
 _atom_site_label
 _atom_site_symmetry_multiplicity
 _atom_site_fract_x
 _atom_site_fract_y
 _atom_site_fract_z
 _atom_site_occupancy
  Ti  Ti0  1  0.500000  0.000000  0.500000  1
  Ti  Ti1  1  0.000000  0.500000  0.000000  1
  Ti  Ti2  1  0.500000  0.000000  0.000000  1
  Ti  Ti3  1  0.000000  0.500000  0.500000  1
  Mn  Mn4  1  0.012422  0.947650  0.750000  1
  Mn  Mn5  1  0.987578  0.052350  0.250000  1
  Mn  Mn6  1  0.512422  0.552350  0.250000  1
  Mn  Mn7  1  0.487578  0.447651  0.750000  1
  O  O8  1  0.809553  0.805382  0.058593  1
  O  O9  1  0.309553  0.694618  0.941407  1
  O  O10  1  0.190447  0.194618  0.941407  1
  O  O11  1  0.809553  0.805382  0.441407  1
  O  O12  1  0.190447  0.194618  0.558593  1
  O  O13  1  0.888392  0.543553  0.750000  1
  O  O14  1  0.690447  0.305382  0.058593  1
  O  O15  1  0.611608  0.043553  0.750000  1
  O  O16  1  0.111608  0.456447  0.250000  1
  O  O17  1  0.388392  0.956447  0.250000  1
  O  O18  1  0.690447  0.305382  0.441407  1
  O  O19  1  0.309553  0.694618  0.558593  1
