# generated using pymatgen
data_Ti4(Ni5O8)3
_symmetry_space_group_name_H-M   'P 1'
_cell_length_a   5.95184566
_cell_length_b   5.95184566
_cell_length_c   14.50415751
_cell_angle_alpha   90.00006631
_cell_angle_beta   89.99993369
_cell_angle_gamma   120.00006343
_symmetry_Int_Tables_number   1
_chemical_formula_structural   Ti4(Ni5O8)3
_chemical_formula_sum   'Ti4 Ni15 O24'
_cell_volume   444.96533926
_cell_formula_units_Z   1
loop_
 _symmetry_equiv_pos_site_id
 _symmetry_equiv_pos_as_xyz
  1  'x, y, z'
loop_
 _atom_site_type_symbol
 _atom_site_label
 _atom_site_symmetry_multiplicity
 _atom_site_fract_x
 _atom_site_fract_y
 _atom_site_fract_z
 _atom_site_occupancy
  Ti  Ti0  1  0.833334  0.666666  0.044017  1
  Ti  Ti1  1  0.166667  0.333333  0.709375  1
  Ti  Ti2  1  0.166667  0.333333  0.957294  1
  Ti  Ti3  1  0.500000  0.000000  0.622648  1
  Ni  Ni4  1  0.331434  0.662866  0.165918  1
  Ni  Ni5  1  0.166667  0.833334  0.333342  1
  Ni  Ni6  1  0.001910  0.498090  0.500731  1
  Ni  Ni7  1  0.500000  0.000000  0.000248  1
  Ni  Ni8  1  0.331433  0.168567  0.165918  1
  Ni  Ni9  1  0.666666  0.833334  0.333342  1
  Ni  Ni10  1  0.166667  0.333333  0.333344  1
  Ni  Ni11  1  0.001909  0.003819  0.500731  1
  Ni  Ni12  1  0.666666  0.333333  0.333342  1
  Ni  Ni13  1  0.837134  0.168566  0.165918  1
  Ni  Ni14  1  0.166667  0.833333  0.833342  1
  Ni  Ni15  1  0.496181  0.498091  0.500731  1
  Ni  Ni16  1  0.833333  0.666667  0.666407  1
  Ni  Ni17  1  0.666666  0.833334  0.833342  1
  Ni  Ni18  1  0.666667  0.333333  0.833342  1
  O  O19  1  0.172528  0.836264  0.085082  1
  O  O20  1  0.663735  0.836265  0.085083  1
  O  O21  1  0.016699  0.483301  0.258352  1
  O  O22  1  0.166666  0.333334  0.084169  1
  O  O23  1  0.160814  0.830407  0.581584  1
  O  O24  1  0.466603  0.483302  0.258352  1
  O  O25  1  0.016698  0.033397  0.258352  1
  O  O26  1  0.316636  0.633272  0.408311  1
  O  O27  1  0.663736  0.327472  0.085082  1
  O  O28  1  0.500000  -0.000000  0.249398  1
  O  O29  1  0.316636  0.183364  0.408311  1
  O  O30  1  0.166667  0.333333  0.582501  1
  O  O31  1  0.669593  0.830407  0.581583  1
  O  O32  1  0.833333  0.666667  0.417267  1
  O  O33  1  0.336272  0.672544  0.915765  1
  O  O34  1  0.669593  0.339186  0.581584  1
  O  O35  1  0.505873  0.502936  0.750904  1
  O  O36  1  0.997064  0.994127  0.750904  1
  O  O37  1  0.866728  0.183364  0.408311  1
  O  O38  1  0.833333  0.666667  0.916287  1
  O  O39  1  0.997063  0.502937  0.750905  1
  O  O40  1  0.500000  0.000000  0.750381  1
  O  O41  1  0.336272  0.163727  0.915765  1
  O  O42  1  0.827456  0.163728  0.915765  1
