# generated using pymatgen
data_Ti5Fe11O24
_symmetry_space_group_name_H-M   'P 1'
_cell_length_a   11.09906102
_cell_length_b   14.95802177
_cell_length_c   9.80992984
_cell_angle_alpha   26.59453811
_cell_angle_beta   50.16572728
_cell_angle_gamma   37.64389046
_symmetry_Int_Tables_number   1
_chemical_formula_structural   Ti5Fe11O24
_chemical_formula_sum   'Ti5 Fe11 O24'
_cell_volume   431.52702907
_cell_formula_units_Z   1
loop_
 _symmetry_equiv_pos_site_id
 _symmetry_equiv_pos_as_xyz
  1  'x, y, z'
loop_
 _atom_site_type_symbol
 _atom_site_label
 _atom_site_symmetry_multiplicity
 _atom_site_fract_x
 _atom_site_fract_y
 _atom_site_fract_z
 _atom_site_occupancy
  Ti  Ti0  1  0.069165  0.998602  0.153921  1
  Ti  Ti1  1  0.574177  0.000296  0.147709  1
  Ti  Ti2  1  0.326497  0.502533  0.140887  1
  Ti  Ti3  1  0.826007  0.497541  0.149879  1
  Ti  Ti4  1  0.430433  0.997442  0.857260  1
  Fe  Fe5  1  0.178100  0.000143  0.354946  1
  Fe  Fe6  1  0.675378  0.998087  0.360546  1
  Fe  Fe7  1  0.071963  0.500572  0.646173  1
  Fe  Fe8  1  0.426787  0.504829  0.349973  1
  Fe  Fe9  1  0.179982  0.498072  0.854781  1
  Fe  Fe10  1  0.576279  0.497083  0.647274  1
  Fe  Fe11  1  0.932252  0.498923  0.355920  1
  Fe  Fe12  1  0.676147  0.503409  0.853215  1
  Fe  Fe13  1  0.317376  0.000714  0.648232  1
  Fe  Fe14  1  0.824969  0.002218  0.639725  1
  Fe  Fe15  1  0.923579  0.000339  0.853328  1
  O  O16  1  0.291921  0.198528  0.037221  1
  O  O17  1  0.103704  0.346034  0.248834  1
  O  O18  1  0.159614  0.119203  0.791502  1
  O  O19  1  0.046197  0.690908  0.047140  1
  O  O20  1  0.429810  0.174644  0.438536  1
  O  O21  1  0.297483  0.333033  0.572375  1
  O  O22  1  0.792376  0.197835  0.038248  1
  O  O23  1  0.593198  0.358255  0.239608  1
  O  O24  1  0.183146  0.673593  0.429275  1
  O  O25  1  0.647921  0.132908  0.785868  1
  O  O26  1  0.057128  0.843212  0.544201  1
  O  O27  1  0.541565  0.703703  0.031359  1
  O  O28  1  0.474631  0.307149  0.937526  1
  O  O29  1  0.934383  0.180169  0.427356  1
  O  O30  1  0.364617  0.841795  0.241434  1
  O  O31  1  0.795683  0.349091  0.553847  1
  O  O32  1  0.402512  0.626596  0.780636  1
  O  O33  1  0.218119  0.810428  0.933860  1
  O  O34  1  0.680849  0.673342  0.437049  1
  O  O35  1  0.537893  0.853344  0.552943  1
  O  O36  1  0.973019  0.307607  0.935836  1
  O  O37  1  0.856612  0.836446  0.258371  1
  O  O38  1  0.902548  0.629651  0.780268  1
  O  O39  1  0.705979  0.811724  0.942938  1
