# generated using pymatgen
data_Ti5Fe11O24
_symmetry_space_group_name_H-M   'P 1'
_cell_length_a   11.06396794
_cell_length_b   14.97935216
_cell_length_c   9.82018822
_cell_angle_alpha   26.40909703
_cell_angle_beta   49.98828703
_cell_angle_gamma   37.47981229
_symmetry_Int_Tables_number   1
_chemical_formula_structural   Ti5Fe11O24
_chemical_formula_sum   'Ti5 Fe11 O24'
_cell_volume   426.41876246
_cell_formula_units_Z   1
loop_
 _symmetry_equiv_pos_site_id
 _symmetry_equiv_pos_as_xyz
  1  'x, y, z'
loop_
 _atom_site_type_symbol
 _atom_site_label
 _atom_site_symmetry_multiplicity
 _atom_site_fract_x
 _atom_site_fract_y
 _atom_site_fract_z
 _atom_site_occupancy
  Ti  Ti0  1  0.178334  0.509561  0.838415  1
  Ti  Ti1  1  0.179706  0.005782  0.345325  1
  Ti  Ti2  1  0.687319  0.504957  0.833772  1
  Ti  Ti3  1  0.414793  0.008056  0.854822  1
  Ti  Ti4  1  0.921202  0.990901  0.875203  1
  Fe  Fe5  1  0.320261  0.004871  0.642351  1
  Fe  Fe6  1  0.324775  0.499845  0.143638  1
  Fe  Fe7  1  0.075890  0.495140  0.660205  1
  Fe  Fe8  1  0.428040  0.497124  0.356473  1
  Fe  Fe9  1  0.817710  0.000982  0.648707  1
  Fe  Fe10  1  0.066897  0.995824  0.149566  1
  Fe  Fe11  1  0.825162  0.500055  0.143939  1
  Fe  Fe12  1  0.579656  0.494030  0.644929  1
  Fe  Fe13  1  0.926258  0.500857  0.356065  1
  Fe  Fe14  1  0.575311  0.999540  0.154793  1
  Fe  Fe15  1  0.676120  0.001473  0.352228  1
  O  O16  1  0.272920  0.181186  0.078571  1
  O  O17  1  0.111535  0.349237  0.228904  1
  O  O18  1  0.164582  0.145334  0.742156  1
  O  O19  1  0.027022  0.710788  0.038960  1
  O  O20  1  0.452333  0.151684  0.443805  1
  O  O21  1  0.309614  0.331946  0.563113  1
  O  O22  1  0.760338  0.205599  0.062137  1
  O  O23  1  0.603450  0.355218  0.235860  1
  O  O24  1  0.218337  0.620313  0.478280  1
  O  O25  1  0.656533  0.149956  0.741188  1
  O  O26  1  0.056064  0.827474  0.583665  1
  O  O27  1  0.527178  0.693743  0.059194  1
  O  O28  1  0.456564  0.307187  0.955975  1
  O  O29  1  0.960641  0.151907  0.429813  1
  O  O30  1  0.345397  0.870365  0.223697  1
  O  O31  1  0.812679  0.325282  0.560516  1
  O  O32  1  0.377967  0.677784  0.732257  1
  O  O33  1  0.212849  0.810384  0.947580  1
  O  O34  1  0.702637  0.644594  0.467798  1
  O  O35  1  0.552922  0.833062  0.576833  1
  O  O36  1  0.958409  0.310834  0.954697  1
  O  O37  1  0.856376  0.860724  0.233529  1
  O  O38  1  0.896982  0.658176  0.744904  1
  O  O39  1  0.708922  0.813212  0.940793  1
