# generated using pymatgen
data_Ti5Fe11O24
_symmetry_space_group_name_H-M   'P 1'
_cell_length_a   5.52816365
_cell_length_b   5.58516050
_cell_length_c   22.17486626
_cell_angle_alpha   55.16483942
_cell_angle_beta   55.75196079
_cell_angle_gamma   55.37192113
_symmetry_Int_Tables_number   1
_chemical_formula_structural   Ti5Fe11O24
_chemical_formula_sum   'Ti5 Fe11 O24'
_cell_volume   432.71350728
_cell_formula_units_Z   1
loop_
 _symmetry_equiv_pos_site_id
 _symmetry_equiv_pos_as_xyz
  1  'x, y, z'
loop_
 _atom_site_type_symbol
 _atom_site_label
 _atom_site_symmetry_multiplicity
 _atom_site_fract_x
 _atom_site_fract_y
 _atom_site_fract_z
 _atom_site_occupancy
  Ti  Ti0  1  0.336403  0.354355  0.094789  1
  Ti  Ti1  1  0.342999  0.369439  0.333162  1
  Ti  Ti2  1  0.159427  0.139217  0.535327  1
  Ti  Ti3  1  0.845326  0.863682  0.711363  1
  Ti  Ti4  1  0.848921  0.859963  0.964380  1
  Fe  Fe5  1  0.138972  0.148792  0.034403  1
  Fe  Fe6  1  0.138055  0.146952  0.288021  1
  Fe  Fe7  1  0.655843  0.639667  0.159387  1
  Fe  Fe8  1  0.852893  0.854817  0.213906  1
  Fe  Fe9  1  0.356974  0.352982  0.589971  1
  Fe  Fe10  1  0.646691  0.637935  0.413091  1
  Fe  Fe11  1  0.140426  0.145510  0.786525  1
  Fe  Fe12  1  0.861348  0.852440  0.461849  1
  Fe  Fe13  1  0.358389  0.358654  0.835838  1
  Fe  Fe14  1  0.642684  0.649144  0.658648  1
  Fe  Fe15  1  0.642303  0.650969  0.912382  1
  O  O16  1  0.083494  0.714853  0.115900  1
  O  O17  1  0.462134  0.078449  0.180698  1
  O  O18  1  0.713001  0.464671  0.014742  1
  O  O19  1  0.232259  0.564145  0.241693  1
  O  O20  1  0.588044  0.952067  0.054042  1
  O  O21  1  0.060976  0.720110  0.363732  1
  O  O22  1  0.984091  0.221446  0.137597  1
  O  O23  1  0.435992  0.057988  0.437237  1
  O  O24  1  0.713885  0.458766  0.269907  1
  O  O25  1  0.251750  0.551674  0.486389  1
  O  O26  1  0.561660  0.949753  0.313067  1
  O  O27  1  0.050874  0.781923  0.609149  1
  O  O28  1  0.943009  0.245282  0.392493  1
  O  O29  1  0.447495  0.050882  0.692567  1
  O  O30  1  0.779938  0.438348  0.512042  1
  O  O31  1  0.214260  0.557004  0.741842  1
  O  O32  1  0.551502  0.948290  0.556627  1
  O  O33  1  0.057012  0.739803  0.863552  1
  O  O34  1  0.951270  0.217149  0.641107  1
  O  O35  1  0.465039  0.055530  0.931272  1
  O  O36  1  0.750217  0.444333  0.763434  1
  O  O37  1  0.231790  0.582158  0.984107  1
  O  O38  1  0.563015  0.945981  0.809917  1
  O  O39  1  0.939639  0.234878  0.893845  1
