# generated using pymatgen
data_Ti5Fe11O24
_symmetry_space_group_name_H-M   'P 1'
_cell_length_a   5.53915766
_cell_length_b   9.16015669
_cell_length_c   9.14850015
_cell_angle_alpha   68.49942526
_cell_angle_beta   94.98645491
_cell_angle_gamma   94.71962627
_symmetry_Int_Tables_number   1
_chemical_formula_structural   Ti5Fe11O24
_chemical_formula_sum   'Ti5 Fe11 O24'
_cell_volume   429.61788005
_cell_formula_units_Z   1
loop_
 _symmetry_equiv_pos_site_id
 _symmetry_equiv_pos_as_xyz
  1  'x, y, z'
loop_
 _atom_site_type_symbol
 _atom_site_label
 _atom_site_symmetry_multiplicity
 _atom_site_fract_x
 _atom_site_fract_y
 _atom_site_fract_z
 _atom_site_occupancy
  Ti  Ti0  1  0.291056  0.424130  0.426335  1
  Ti  Ti1  1  0.710663  0.570922  0.570022  1
  Ti  Ti2  1  0.794765  0.426004  0.929885  1
  Ti  Ti3  1  0.294800  0.926886  0.929904  1
  Ti  Ti4  1  0.791655  0.928213  0.422030  1
  Fe  Fe5  1  0.712294  0.069020  0.073738  1
  Fe  Fe6  1  0.290878  0.178304  0.178198  1
  Fe  Fe7  1  0.206332  0.075024  0.572579  1
  Fe  Fe8  1  0.787472  0.174839  0.675844  1
  Fe  Fe9  1  0.210715  0.575594  0.072735  1
  Fe  Fe10  1  0.707977  0.324774  0.319605  1
  Fe  Fe11  1  0.210680  0.319912  0.823161  1
  Fe  Fe12  1  0.290310  0.676612  0.679236  1
  Fe  Fe13  1  0.213275  0.822319  0.321633  1
  Fe  Fe14  1  0.805486  0.675494  0.173809  1
  Fe  Fe15  1  0.706917  0.824763  0.824010  1
  O  O16  1  0.140313  0.033204  0.374884  1
  O  O17  1  0.154564  0.110049  0.782826  1
  O  O18  1  0.640451  0.106539  0.284110  1
  O  O19  1  0.021672  0.285239  0.476617  1
  O  O20  1  0.644998  0.017098  0.882016  1
  O  O21  1  -0.004202  0.225177  0.031678  1
  O  O22  1  0.490105  0.226831  0.522359  1
  O  O23  1  0.336198  0.375458  0.221663  1
  O  O24  1  0.156933  0.609417  0.280746  1
  O  O25  1  0.524668  0.282224  0.980392  1
  O  O26  1  0.841010  0.477336  0.109971  1
  O  O27  1  0.353024  0.483840  0.611322  1
  O  O28  1  0.147903  0.530129  0.874054  1
  O  O29  1  0.653816  0.531297  0.386389  1
  O  O30  1  0.492164  0.726267  0.023664  1
  O  O31  1  0.835855  0.389417  0.719658  1
  O  O32  1  0.650597  0.618670  0.784776  1
  O  O33  1  0.515747  0.780576  0.480047  1
  O  O34  1  0.008901  0.786312  0.968416  1
  O  O35  1  0.340975  0.983571  0.106906  1
  O  O36  1  0.989720  0.715514  0.535581  1
  O  O37  1  0.350012  0.874072  0.722331  1
  O  O38  1  0.844210  0.876330  0.229541  1
  O  O39  1  0.845090  0.962621  0.617329  1
