# generated using pymatgen
data_Ti5NbO12
_symmetry_space_group_name_H-M   'P 1'
_cell_length_a   7.27697432
_cell_length_b   5.57277546
_cell_length_c   5.57277546
_cell_angle_alpha   73.49858261
_cell_angle_beta   71.21734152
_cell_angle_gamma   71.21734152
_symmetry_Int_Tables_number   1
_chemical_formula_structural   Ti5NbO12
_chemical_formula_sum   'Ti5 Nb1 O12'
_cell_volume   198.42003795
_cell_formula_units_Z   1
loop_
 _symmetry_equiv_pos_site_id
 _symmetry_equiv_pos_as_xyz
  1  'x, y, z'
loop_
 _atom_site_type_symbol
 _atom_site_label
 _atom_site_symmetry_multiplicity
 _atom_site_fract_x
 _atom_site_fract_y
 _atom_site_fract_z
 _atom_site_occupancy
  Ti  Ti0  1  0.839567  0.662228  0.662228  1
  Ti  Ti1  1  0.670809  0.337807  0.337807  1
  Ti  Ti2  1  0.329191  0.662193  0.662193  1
  Ti  Ti3  1  0.160433  0.337772  0.337772  1
  Ti  Ti4  1  0.000000  0.000000  0.000000  1
  Nb  Nb5  1  0.500000  0.000000  0.000000  1
  O  O6  1  0.669294  0.028293  0.632325  1
  O  O7  1  0.330706  0.367675  0.971707  1
  O  O8  1  0.964782  0.231140  0.231140  1
  O  O9  1  0.295003  0.897992  0.897992  1
  O  O10  1  0.629191  0.565338  0.565338  1
  O  O11  1  0.704997  0.102008  0.102008  1
  O  O12  1  0.035218  0.768859  0.768859  1
  O  O13  1  0.370809  0.434662  0.434662  1
  O  O14  1  0.000000  0.304288  0.695712  1
  O  O15  1  0.669294  0.632325  0.028293  1
  O  O16  1  0.330706  0.971707  0.367675  1
  O  O17  1  0.000000  0.695712  0.304288  1
