# generated using pymatgen
data_TiCrO3
_symmetry_space_group_name_H-M   'P 1'
_cell_length_a   5.23251386
_cell_length_b   5.24485477
_cell_length_c   14.20909874
_cell_angle_alpha   87.26019440
_cell_angle_beta   92.12797001
_cell_angle_gamma   120.36943964
_symmetry_Int_Tables_number   1
_chemical_formula_structural   TiCrO3
_chemical_formula_sum   'Ti6 Cr6 O18'
_cell_volume   336.02092356
_cell_formula_units_Z   6
loop_
 _symmetry_equiv_pos_site_id
 _symmetry_equiv_pos_as_xyz
  1  'x, y, z'
loop_
 _atom_site_type_symbol
 _atom_site_label
 _atom_site_symmetry_multiplicity
 _atom_site_fract_x
 _atom_site_fract_y
 _atom_site_fract_z
 _atom_site_occupancy
  Ti  Ti0  1  0.327688  0.659292  0.151710  1
  Ti  Ti1  1  0.987341  0.995191  0.200081  1
  Ti  Ti2  1  0.998049  0.992013  0.699879  1
  Ti  Ti3  1  0.348214  0.687792  0.366166  1
  Ti  Ti4  1  0.676601  0.328194  0.651769  1
  Ti  Ti5  1  0.659633  0.346571  0.866498  1
  Cr  Cr6  1  0.323887  0.669367  0.851393  1
  Cr  Cr7  1  0.993200  0.998405  0.993982  1
  Cr  Cr8  1  0.014078  0.009163  0.493892  1
  Cr  Cr9  1  0.341436  0.657825  0.646034  1
  Cr  Cr10  1  0.656704  0.322362  0.146534  1
  Cr  Cr11  1  0.670792  0.349640  0.352114  1
  O  O12  1  0.316925  0.019989  0.596353  1
  O  O13  1  0.331000  0.037163  0.917163  1
  O  O14  1  0.971110  0.629405  0.757033  1
  O  O15  1  0.980062  0.274952  0.596061  1
  O  O16  1  0.972211  0.320243  0.919016  1
  O  O17  1  0.650539  0.993047  0.747483  1
  O  O18  1  0.362574  0.334550  0.741113  1
  O  O19  1  0.748552  0.696462  0.595649  1
  O  O20  1  0.671151  0.661970  0.919366  1
  O  O21  1  0.273411  0.303380  0.096675  1
  O  O22  1  0.324496  0.353648  0.419833  1
  O  O23  1  0.633962  0.662813  0.259000  1
  O  O24  1  0.341890  0.980402  0.242892  1
  O  O25  1  0.014312  0.710620  0.096339  1
  O  O26  1  0.044690  0.708084  0.415746  1
  O  O27  1  0.002660  0.347037  0.244749  1
  O  O28  1  0.672026  -0.000471  0.420076  1
  O  O29  1  0.691032  0.951322  0.095402  1
