# generated using pymatgen
data_Ti3Fe5O12
_symmetry_space_group_name_H-M   'P 1'
_cell_length_a   5.57616074
_cell_length_b   22.16403924
_cell_length_c   9.81607926
_cell_angle_alpha   27.80426266
_cell_angle_beta   49.98121039
_cell_angle_gamma   55.32814465
_symmetry_Int_Tables_number   1
_chemical_formula_structural   Ti3Fe5O12
_chemical_formula_sum   'Ti6 Fe10 O24'
_cell_volume   433.37518418
_cell_formula_units_Z   2
loop_
 _symmetry_equiv_pos_site_id
 _symmetry_equiv_pos_as_xyz
  1  'x, y, z'
loop_
 _atom_site_type_symbol
 _atom_site_label
 _atom_site_symmetry_multiplicity
 _atom_site_fract_x
 _atom_site_fract_y
 _atom_site_fract_z
 _atom_site_occupancy
  Ti  Ti0  1  0.355698  0.999378  0.357728  1
  Ti  Ti1  1  0.155566  0.496429  0.148648  1
  Ti  Ti2  1  0.849493  0.994905  0.864327  1
  Ti  Ti3  1  0.840911  0.253063  0.852751  1
  Ti  Ti4  1  0.854688  0.500713  0.849683  1
  Ti  Ti5  1  0.872758  0.748216  0.848554  1
  Fe  Fe6  1  0.145037  0.001494  0.141894  1
  Fe  Fe7  1  0.143057  0.251045  0.144711  1
  Fe  Fe8  1  0.359265  0.249418  0.351841  1
  Fe  Fe9  1  0.640909  0.997560  0.650753  1
  Fe  Fe10  1  0.354727  0.498059  0.364386  1
  Fe  Fe11  1  0.638034  0.246657  0.647247  1
  Fe  Fe12  1  0.143268  0.749782  0.151909  1
  Fe  Fe13  1  0.357484  0.752617  0.349423  1
  Fe  Fe14  1  0.640978  0.504607  0.634664  1
  Fe  Fe15  1  0.649137  0.748516  0.647796  1
  O  O16  1  0.082799  0.075545  0.432697  1
  O  O17  1  0.732819  0.087143  0.083080  1
  O  O18  1  0.565924  0.185064  0.220810  1
  O  O19  1  0.069145  0.330114  0.435591  1
  O  O20  1  0.449592  0.081414  0.742055  1
  O  O21  1  0.752064  0.345264  0.059487  1
  O  O22  1  0.203982  0.148132  0.969062  1
  O  O23  1  0.561250  0.434835  0.217486  1
  O  O24  1  0.039756  0.580415  0.448811  1
  O  O25  1  0.960286  0.164139  0.562857  1
  O  O26  1  0.457338  0.317505  0.763989  1
  O  O27  1  0.786275  0.595765  0.054271  1
  O  O28  1  0.220447  0.401151  0.958444  1
  O  O29  1  0.567553  0.689240  0.203758  1
  O  O30  1  0.049455  0.828180  0.451513  1
  O  O31  1  0.949715  0.410668  0.569651  1
  O  O32  1  0.432126  0.568370  0.780397  1
  O  O33  1  0.763432  0.852864  0.049002  1
  O  O34  1  0.226004  0.653045  0.956215  1
  O  O35  1  0.562409  0.938262  0.216048  1
  O  O36  1  0.948256  0.661260  0.573385  1
  O  O37  1  0.433888  0.837396  0.732315  1
  O  O38  1  0.214372  0.908204  0.947983  1
  O  O39  1  0.970099  0.913564  0.564779  1
