# generated using pymatgen
data_Ti3Fe5O12
_symmetry_space_group_name_H-M   'P 1'
_cell_length_a   5.53278837
_cell_length_b   22.23519308
_cell_length_c   9.87404352
_cell_angle_alpha   27.53992391
_cell_angle_beta   49.69124963
_cell_angle_gamma   55.07428085
_symmetry_Int_Tables_number   1
_chemical_formula_structural   Ti3Fe5O12
_chemical_formula_sum   'Ti6 Fe10 O24'
_cell_volume   428.29579218
_cell_formula_units_Z   2
loop_
 _symmetry_equiv_pos_site_id
 _symmetry_equiv_pos_as_xyz
  1  'x, y, z'
loop_
 _atom_site_type_symbol
 _atom_site_label
 _atom_site_symmetry_multiplicity
 _atom_site_fract_x
 _atom_site_fract_y
 _atom_site_fract_z
 _atom_site_occupancy
  Ti  Ti0  1  0.147122  0.504839  0.133172  1
  Ti  Ti1  1  0.152788  0.744744  0.155474  1
  Ti  Ti2  1  0.847212  0.255256  0.844526  1
  Ti  Ti3  1  0.143446  0.000390  0.142028  1
  Ti  Ti4  1  0.852878  0.495161  0.866828  1
  Ti  Ti5  1  0.856554  -0.000390  0.857972  1
  Fe  Fe6  1  0.346683  -0.002766  0.362213  1
  Fe  Fe7  1  0.140994  0.249328  0.151036  1
  Fe  Fe8  1  0.355354  0.252487  0.344942  1
  Fe  Fe9  1  0.653317  0.002766  0.637787  1
  Fe  Fe10  1  0.356574  0.499417  0.355330  1
  Fe  Fe11  1  0.640040  0.250645  0.647362  1
  Fe  Fe12  1  0.359960  0.749355  0.352638  1
  Fe  Fe13  1  0.643426  0.500583  0.644670  1
  Fe  Fe14  1  0.644646  0.747513  0.655058  1
  Fe  Fe15  1  0.859006  0.750672  0.848964  1
  O  O16  1  0.048403  0.075943  0.447072  1
  O  O17  1  0.758167  0.087980  0.074037  1
  O  O18  1  0.574095  0.173616  0.241510  1
  O  O19  1  0.052775  0.329711  0.448571  1
  O  O20  1  0.442026  0.069147  0.771233  1
  O  O21  1  0.762652  0.350986  0.050889  1
  O  O22  1  0.225573  0.149388  0.958399  1
  O  O23  1  0.564140  0.432772  0.221604  1
  O  O24  1  0.048673  0.587108  0.432034  1
  O  O25  1  0.952135  0.161153  0.572088  1
  O  O26  1  0.452201  0.317236  0.775907  1
  O  O27  1  0.776334  0.598126  0.043280  1
  O  O28  1  0.223666  0.401874  0.956720  1
  O  O29  1  0.547799  0.682764  0.224093  1
  O  O30  1  0.047865  0.838847  0.427912  1
  O  O31  1  0.951327  0.412892  0.567966  1
  O  O32  1  0.435860  0.567228  0.778396  1
  O  O33  1  0.774427  0.850612  0.041601  1
  O  O34  1  0.237348  0.649014  0.949111  1
  O  O35  1  0.557974  0.930853  0.228767  1
  O  O36  1  0.947225  0.670289  0.551429  1
  O  O37  1  0.425905  0.826384  0.758490  1
  O  O38  1  0.241833  0.912020  0.925963  1
  O  O39  1  0.951597  0.924057  0.552928  1
