# generated using pymatgen
data_Ti3Fe7O15
_symmetry_space_group_name_H-M   'P 1'
_cell_length_a   5.51204682
_cell_length_b   5.51204622
_cell_length_c   27.71719397
_cell_angle_alpha   55.82597057
_cell_angle_beta   55.82597502
_cell_angle_gamma   55.75422410
_symmetry_Int_Tables_number   1
_chemical_formula_structural   Ti3Fe7O15
_chemical_formula_sum   'Ti6 Fe14 O30'
_cell_volume   537.50634618
_cell_formula_units_Z   2
loop_
 _symmetry_equiv_pos_site_id
 _symmetry_equiv_pos_as_xyz
  1  'x, y, z'
loop_
 _atom_site_type_symbol
 _atom_site_label
 _atom_site_symmetry_multiplicity
 _atom_site_fract_x
 _atom_site_fract_y
 _atom_site_fract_z
 _atom_site_occupancy
  Ti  Ti0  1  0.152276  0.147293  0.026324  1
  Ti  Ti1  1  0.633164  0.642204  0.133717  1
  Ti  Ti2  1  0.639936  0.647238  0.328356  1
  Ti  Ti3  1  0.142204  0.133164  0.633717  1
  Ti  Ti4  1  0.647293  0.652276  0.526324  1
  Ti  Ti5  1  0.147238  0.139936  0.828356  1
  Fe  Fe6  1  0.353216  0.352407  0.071030  1
  Fe  Fe7  1  0.147928  0.150399  0.229101  1
  Fe  Fe8  1  0.359269  0.357249  0.272736  1
  Fe  Fe9  1  0.147587  0.150915  0.429635  1
  Fe  Fe10  1  0.855072  0.865297  0.169321  1
  Fe  Fe11  1  0.363349  0.359844  0.472028  1
  Fe  Fe12  1  0.853378  0.851566  0.369424  1
  Fe  Fe13  1  0.365297  0.355072  0.669321  1
  Fe  Fe14  1  0.852407  0.853216  0.571030  1
  Fe  Fe15  1  0.351566  0.353378  0.869424  1
  Fe  Fe16  1  0.650399  0.647929  0.729101  1
  Fe  Fe17  1  0.857249  0.859269  0.772736  1
  Fe  Fe18  1  0.650914  0.647587  0.929635  1
  Fe  Fe19  1  0.859844  0.863349  0.972028  1
  O  O20  1  0.070322  0.771714  0.081323  1
  O  O21  1  0.433041  0.049391  0.150698  1
  O  O22  1  0.768290  0.422991  0.012054  1
  O  O23  1  0.281234  0.537721  0.184951  1
  O  O24  1  0.533225  0.934728  0.057877  1
  O  O25  1  0.028937  0.773430  0.288410  1
  O  O26  1  0.930652  0.287084  0.107244  1
  O  O27  1  0.444432  0.027459  0.355817  1
  O  O28  1  0.776101  0.445694  0.204546  1
  O  O29  1  0.260183  0.558578  0.385518  1
  O  O30  1  0.539187  0.921343  0.257015  1
  O  O31  1  0.021244  0.777616  0.490440  1
  O  O32  1  0.914005  0.268022  0.312230  1
  O  O33  1  0.434728  0.033225  0.557877  1
  O  O34  1  0.772377  0.441441  0.407093  1
  O  O35  1  0.271714  0.570322  0.581323  1
  O  O36  1  0.559881  0.920093  0.453114  1
  O  O37  1  0.037721  0.781234  0.684951  1
  O  O38  1  0.922991  0.268290  0.512054  1
  O  O39  1  0.421343  0.039187  0.757015  1
  O  O40  1  0.787084  0.430652  0.607244  1
  O  O41  1  0.273430  0.528937  0.788410  1
  O  O42  1  0.549391  0.933041  0.650698  1
  O  O43  1  0.058578  0.760183  0.885518  1
  O  O44  1  0.945694  0.276101  0.704546  1
  O  O45  1  0.420093  0.059881  0.953114  1
  O  O46  1  0.768022  0.414005  0.812230  1
  O  O47  1  0.277616  0.521244  0.990440  1
  O  O48  1  0.527459  0.944432  0.855817  1
  O  O49  1  0.941441  0.272377  0.907093  1
