# generated using pymatgen
data_Ti3Fe7O15
_symmetry_space_group_name_H-M   'P 1'
_cell_length_a   5.50106030
_cell_length_b   27.53475389
_cell_length_c   14.84176611
_cell_angle_alpha   17.91388975
_cell_angle_beta   51.32015573
_cell_angle_gamma   55.92799365
_symmetry_Int_Tables_number   1
_chemical_formula_structural   Ti3Fe7O15
_chemical_formula_sum   'Ti6 Fe14 O30'
_cell_volume   534.22677676
_cell_formula_units_Z   2
loop_
 _symmetry_equiv_pos_site_id
 _symmetry_equiv_pos_as_xyz
  1  'x, y, z'
loop_
 _atom_site_type_symbol
 _atom_site_label
 _atom_site_symmetry_multiplicity
 _atom_site_fract_x
 _atom_site_fract_y
 _atom_site_fract_z
 _atom_site_occupancy
  Ti  Ti0  1  0.849680  0.027940  0.856447  1
  Ti  Ti1  1  0.857517  0.234103  0.845584  1
  Ti  Ti2  1  0.851088  0.426758  0.855930  1
  Ti  Ti3  1  0.358917  0.929400  0.352327  1
  Ti  Ti4  1  0.865354  0.627856  0.853228  1
  Ti  Ti5  1  0.838692  0.826440  0.865557  1
  Fe  Fe6  1  0.139074  0.170155  0.146709  1
  Fe  Fe7  1  0.349990  0.132959  0.346163  1
  Fe  Fe8  1  0.141806  0.372037  0.141046  1
  Fe  Fe9  1  0.353907  0.325926  0.357060  1
  Fe  Fe10  1  0.644950  0.070955  0.647532  1
  Fe  Fe11  1  0.144515  0.569568  0.144480  1
  Fe  Fe12  1  0.352163  0.529883  0.352884  1
  Fe  Fe13  1  0.647634  0.271846  0.643735  1
  Fe  Fe14  1  0.143335  0.772184  0.139683  1
  Fe  Fe15  1  0.350413  0.727553  0.357046  1
  Fe  Fe16  1  0.642419  0.469201  0.652112  1
  Fe  Fe17  1  0.148607  0.969938  0.148238  1
  Fe  Fe18  1  0.655951  0.672025  0.640903  1
  Fe  Fe19  1  0.641994  0.870044  0.648171  1
  O  O20  1  0.722938  0.062447  0.067830  1
  O  O21  1  0.581042  0.094521  0.231173  1
  O  O22  1  0.050753  0.157322  0.472159  1
  O  O23  1  0.725827  0.264127  0.073366  1
  O  O24  1  0.577260  0.294212  0.237600  1
  O  O25  1  0.055293  0.355179  0.472923  1
  O  O26  1  0.941161  0.013509  0.582291  1
  O  O27  1  0.458255  0.116906  0.736211  1
  O  O28  1  0.722231  0.477056  0.048199  1
  O  O29  1  0.238757  0.135014  0.943788  1
  O  O30  1  0.583841  0.495685  0.229563  1
  O  O31  1  0.071607  0.559297  0.465375  1
  O  O32  1  0.936084  0.216546  0.576780  1
  O  O33  1  0.473209  0.316981  0.730749  1
  O  O34  1  0.732315  0.673470  0.049737  1
  O  O35  1  0.218582  0.332580  0.958085  1
  O  O36  1  0.578377  0.704080  0.219019  1
  O  O37  1  0.051554  0.763571  0.460553  1
  O  O38  1  0.958117  0.410838  0.581575  1
  O  O39  1  0.464087  0.523815  0.727739  1
  O  O40  1  0.726543  0.873159  0.053119  1
  O  O41  1  0.233652  0.542222  0.937573  1
  O  O42  1  0.565965  0.892692  0.239719  1
  O  O43  1  0.072619  0.960307  0.454252  1
  O  O44  1  0.942172  0.615449  0.579579  1
  O  O45  1  0.458603  0.729817  0.710910  1
  O  O46  1  0.232661  0.738753  0.940445  1
  O  O47  1  0.940511  0.819993  0.568352  1
  O  O48  1  0.479226  0.923104  0.717134  1
  O  O49  1  0.228751  0.940577  0.939368  1
