# generated using pymatgen
data_Ti3Fe9O16
_symmetry_space_group_name_H-M   'P 1'
_cell_length_a   6.12874330
_cell_length_b   12.19073643
_cell_length_c   8.64499534
_cell_angle_alpha   90.00000000
_cell_angle_beta   90.00000000
_cell_angle_gamma   90.00000000
_symmetry_Int_Tables_number   1
_chemical_formula_structural   Ti3Fe9O16
_chemical_formula_sum   'Ti6 Fe18 O32'
_cell_volume   645.90126790
_cell_formula_units_Z   2
loop_
 _symmetry_equiv_pos_site_id
 _symmetry_equiv_pos_as_xyz
  1  'x, y, z'
loop_
 _atom_site_type_symbol
 _atom_site_label
 _atom_site_symmetry_multiplicity
 _atom_site_fract_x
 _atom_site_fract_y
 _atom_site_fract_z
 _atom_site_occupancy
  Ti  Ti0  1  0.250000  0.127063  0.250560  1
  Ti  Ti1  1  0.250000  0.875000  0.250000  1
  Ti  Ti2  1  0.250000  0.622937  0.249440  1
  Ti  Ti3  1  0.750000  0.375000  0.750000  1
  Ti  Ti4  1  0.750000  0.627063  0.749440  1
  Ti  Ti5  1  0.750000  0.122937  0.750560  1
  Fe  Fe6  1  0.999343  0.751042  0.998610  1
  Fe  Fe7  1  0.000657  0.251042  0.001390  1
  Fe  Fe8  1  0.500657  0.751042  0.998610  1
  Fe  Fe9  1  0.499343  0.251042  0.001390  1
  Fe  Fe10  1  0.750000  0.999168  0.115911  1
  Fe  Fe11  1  0.750000  0.502646  0.118202  1
  Fe  Fe12  1  0.250000  0.375000  0.250000  1
  Fe  Fe13  1  0.750000  0.750832  0.384089  1
  Fe  Fe14  1  0.750000  0.247354  0.381798  1
  Fe  Fe15  1  0.499343  0.498958  0.498610  1
  Fe  Fe16  1  0.999343  0.998958  0.501390  1
  Fe  Fe17  1  0.500657  0.998958  0.501390  1
  Fe  Fe18  1  0.000657  0.498958  0.498610  1
  Fe  Fe19  1  0.250000  0.747354  0.618202  1
  Fe  Fe20  1  0.250000  0.250832  0.615911  1
  Fe  Fe21  1  0.750000  0.875000  0.750000  1
  Fe  Fe22  1  0.250000  0.499168  0.884089  1
  Fe  Fe23  1  0.250000  0.002646  0.881798  1
  O  O24  1  0.250000  0.877138  0.015662  1
  O  O25  1  0.250000  0.637467  0.020779  1
  O  O26  1  0.250000  0.361270  0.014084  1
  O  O27  1  0.250000  0.123245  0.022751  1
  O  O28  1  0.466041  0.753040  0.251149  1
  O  O29  1  0.033959  0.753040  0.251149  1
  O  O30  1  0.010715  0.234553  0.256648  1
  O  O31  1  0.489285  0.234553  0.256648  1
  O  O32  1  0.010715  0.515447  0.243352  1
  O  O33  1  0.033959  0.996960  0.248851  1
  O  O34  1  0.466041  0.996960  0.248851  1
  O  O35  1  0.489285  0.515447  0.243352  1
  O  O36  1  0.250000  0.872862  0.484338  1
  O  O37  1  0.250000  0.112533  0.479221  1
  O  O38  1  0.250000  0.388730  0.485916  1
  O  O39  1  0.250000  0.626755  0.477249  1
  O  O40  1  0.750000  0.612533  0.520779  1
  O  O41  1  0.750000  0.126755  0.522751  1
  O  O42  1  0.750000  0.888730  0.514084  1
  O  O43  1  0.750000  0.372862  0.515662  1
  O  O44  1  0.966041  0.496960  0.751149  1
  O  O45  1  0.533959  0.496960  0.751149  1
  O  O46  1  0.989285  0.015447  0.756648  1
  O  O47  1  0.510715  0.015447  0.756648  1
  O  O48  1  0.533959  0.253040  0.748851  1
  O  O49  1  0.966041  0.253040  0.748851  1
  O  O50  1  0.510715  0.734553  0.743352  1
  O  O51  1  0.989285  0.734553  0.743352  1
  O  O52  1  0.750000  0.861270  0.985916  1
  O  O53  1  0.750000  0.623245  0.977249  1
  O  O54  1  0.750000  0.137467  0.979221  1
  O  O55  1  0.750000  0.377138  0.984338  1
