# generated using pymatgen
data_TiNb2O7
_symmetry_space_group_name_H-M   'P 1'
_cell_length_a   11.46526137
_cell_length_b   10.56089084
_cell_length_c   7.67665984
_cell_angle_alpha   100.47392282
_cell_angle_beta   99.63425292
_cell_angle_gamma   66.87256213
_symmetry_Int_Tables_number   1
_chemical_formula_structural   TiNb2O7
_chemical_formula_sum   'Ti6 Nb12 O42'
_cell_volume   835.82533303
_cell_formula_units_Z   6
loop_
 _symmetry_equiv_pos_site_id
 _symmetry_equiv_pos_as_xyz
  1  'x, y, z'
loop_
 _atom_site_type_symbol
 _atom_site_label
 _atom_site_symmetry_multiplicity
 _atom_site_fract_x
 _atom_site_fract_y
 _atom_site_fract_z
 _atom_site_occupancy
  Ti  Ti0  1  0.002288  0.368674  0.591502  1
  Ti  Ti1  1  0.359511  0.478811  0.458782  1
  Ti  Ti2  1  0.636779  0.780585  0.353620  1
  Ti  Ti3  1  0.627383  0.791062  0.855319  1
  Ti  Ti4  1  0.373092  0.218464  0.147961  1
  Ti  Ti5  1  0.627178  0.144436  0.943239  1
  Nb  Nb6  1  0.367101  0.859319  0.057391  1
  Nb  Nb7  1  0.371097  0.839404  0.551512  1
  Nb  Nb8  1  0.016037  0.359707  0.095412  1
  Nb  Nb9  1  0.361062  0.481635  0.962372  1
  Nb  Nb10  1  0.984071  0.004094  0.997093  1
  Nb  Nb11  1  0.998894  0.011265  0.502545  1
  Nb  Nb12  1  0.364817  0.216424  0.645169  1
  Nb  Nb13  1  0.640172  0.519033  0.038977  1
  Nb  Nb14  1  0.639520  0.519239  0.540363  1
  Nb  Nb15  1  0.997727  0.636192  0.409639  1
  Nb  Nb16  1  0.984657  0.634895  0.903366  1
  Nb  Nb17  1  0.629612  0.143977  0.442540  1
  O  O18  1  0.196326  0.912358  0.026732  1
  O  O19  1  0.197607  0.908769  0.527034  1
  O  O20  1  0.997339  0.583014  0.145496  1
  O  O21  1  0.997081  0.581584  0.644151  1
  O  O22  1  0.190419  0.552970  0.435716  1
  O  O23  1  0.187352  0.555648  0.936251  1
  O  O24  1  0.418831  0.834112  0.313790  1
  O  O25  1  0.421751  0.834217  0.813422  1
  O  O26  1  0.006579  0.186166  0.048256  1
  O  O27  1  0.006570  0.192225  0.549750  1
  O  O28  1  0.611172  0.966826  0.394648  1
  O  O29  1  0.611744  0.969114  0.894982  1
  O  O30  1  0.413858  0.636380  0.013050  1
  O  O31  1  0.412927  0.631877  0.510967  1
  O  O32  1  0.199675  0.294615  0.123122  1
  O  O33  1  0.190793  0.296356  0.621966  1
  O  O34  1  0.004046  0.996531  0.249831  1
  O  O35  1  0.003431  0.997397  0.750538  1
  O  O36  1  0.598586  0.751753  0.087176  1
  O  O37  1  0.597721  0.750414  0.587389  1
  O  O38  1  0.376523  0.426316  0.202876  1
  O  O39  1  0.376201  0.427043  0.699060  1
  O  O40  1  0.622452  0.577156  0.300339  1
  O  O41  1  0.622060  0.574720  0.798617  1
  O  O42  1  0.403709  0.249470  0.412269  1
  O  O43  1  0.403179  0.250073  0.914344  1
  O  O44  1  0.805476  0.704500  0.377500  1
  O  O45  1  0.802305  0.705593  0.876863  1
  O  O46  1  0.586605  0.366227  0.487584  1
  O  O47  1  0.585813  0.366740  0.988765  1
  O  O48  1  0.388453  0.036936  0.106825  1
  O  O49  1  0.390496  0.028623  0.604400  1
  O  O50  1  0.994872  0.813151  0.453297  1
  O  O51  1  0.996311  0.809018  0.950132  1
  O  O52  1  0.579917  0.166322  0.184758  1
  O  O53  1  0.581795  0.165914  0.688713  1
  O  O54  1  0.813502  0.443203  0.063911  1
  O  O55  1  0.814319  0.443151  0.564439  1
  O  O56  1  0.004062  0.412636  0.355540  1
  O  O57  1  0.003707  0.414781  0.853541  1
  O  O58  1  0.798894  0.089330  0.972939  1
  O  O59  1  0.804548  0.089553  0.472217  1
