# generated using pymatgen
data_TiNiO3
_symmetry_space_group_name_H-M   'P 1'
_cell_length_a   5.49684669
_cell_length_b   5.51488288
_cell_length_c   16.43675279
_cell_angle_alpha   55.00064895
_cell_angle_beta   55.15789186
_cell_angle_gamma   54.68067640
_symmetry_Int_Tables_number   1
_chemical_formula_structural   TiNiO3
_chemical_formula_sum   'Ti6 Ni6 O18'
_cell_volume   310.88110444
_cell_formula_units_Z   6
loop_
 _symmetry_equiv_pos_site_id
 _symmetry_equiv_pos_as_xyz
  1  'x, y, z'
loop_
 _atom_site_type_symbol
 _atom_site_label
 _atom_site_symmetry_multiplicity
 _atom_site_fract_x
 _atom_site_fract_y
 _atom_site_fract_z
 _atom_site_occupancy
  Ti  Ti0  1  0.352001  0.369028  0.108029  1
  Ti  Ti1  1  0.138185  0.142368  0.382638  1
  Ti  Ti2  1  0.143074  0.138545  0.715515  1
  Ti  Ti3  1  0.861227  0.857438  0.281911  1
  Ti  Ti4  1  0.856178  0.853556  0.619482  1
  Ti  Ti5  1  0.828589  0.873307  0.950672  1
  Ni  Ni6  1  0.147685  0.142073  0.048790  1
  Ni  Ni7  1  0.350874  0.347446  0.449743  1
  Ni  Ni8  1  0.647553  0.643347  0.218061  1
  Ni  Ni9  1  0.351348  0.346729  0.784612  1
  Ni  Ni10  1  0.648938  0.650315  0.549129  1
  Ni  Ni11  1  0.644282  0.652675  0.882408  1
  O  O12  1  0.067378  0.721538  0.150356  1
  O  O13  1  0.433053  0.068462  0.249296  1
  O  O14  1  0.727390  0.438766  0.024495  1
  O  O15  1  0.228406  0.563895  0.315333  1
  O  O16  1  0.567575  0.946768  0.079288  1
  O  O17  1  0.053786  0.770993  0.477055  1
  O  O18  1  0.946846  0.225247  0.189748  1
  O  O19  1  0.437365  0.051893  0.589401  1
  O  O20  1  0.764976  0.435801  0.352674  1
  O  O21  1  0.230669  0.561360  0.648796  1
  O  O22  1  0.563964  0.945410  0.407240  1
  O  O23  1  0.060389  0.764372  0.812353  1
  O  O24  1  0.949025  0.228395  0.519242  1
  O  O25  1  0.460562  0.046003  0.916029  1
  O  O26  1  0.771872  0.439635  0.682578  1
  O  O27  1  0.223891  0.562602  0.986026  1
  O  O28  1  0.563770  0.947865  0.742168  1
  O  O29  1  0.942847  0.227869  0.854831  1
