# generated using pymatgen
data_Ti3V2O9
_symmetry_space_group_name_H-M   'P 1'
_cell_length_a   10.86995736
_cell_length_b   10.86995736
_cell_length_c   6.94179572
_cell_angle_alpha   75.61193072
_cell_angle_beta   104.38806928
_cell_angle_gamma   151.72181514
_symmetry_Int_Tables_number   1
_chemical_formula_structural   Ti3V2O9
_chemical_formula_sum   'Ti6 V4 O18'
_cell_volume   375.60452166
_cell_formula_units_Z   2
loop_
 _symmetry_equiv_pos_site_id
 _symmetry_equiv_pos_as_xyz
  1  'x, y, z'
loop_
 _atom_site_type_symbol
 _atom_site_label
 _atom_site_symmetry_multiplicity
 _atom_site_fract_x
 _atom_site_fract_y
 _atom_site_fract_z
 _atom_site_occupancy
  Ti  Ti0  1  0.000000  0.000000  0.500000  1
  Ti  Ti1  1  0.000000  0.000000  0.000000  1
  Ti  Ti2  1  0.913835  0.266295  0.441753  1
  Ti  Ti3  1  0.266295  0.913835  0.058247  1
  Ti  Ti4  1  0.086165  0.733705  0.558247  1
  Ti  Ti5  1  0.733705  0.086165  0.941753  1
  V  V6  1  0.489189  0.616189  0.584212  1
  V  V7  1  0.616189  0.489189  0.915788  1
  V  V8  1  0.510811  0.383810  0.415788  1
  V  V9  1  0.383810  0.510811  0.084212  1
  O  O10  1  0.861799  0.049672  0.491398  1
  O  O11  1  0.049672  0.861799  0.008602  1
  O  O12  1  0.138201  0.950328  0.508602  1
  O  O13  1  0.950328  0.138201  0.991398  1
  O  O14  1  0.264101  0.557731  0.479742  1
  O  O15  1  0.557731  0.264101  0.020258  1
  O  O16  1  0.735899  0.442269  0.520258  1
  O  O17  1  0.442269  0.735899  0.979742  1
  O  O18  1  0.359497  0.316447  0.619501  1
  O  O19  1  0.316447  0.359497  0.880499  1
  O  O20  1  0.640503  0.683553  0.380499  1
  O  O21  1  0.683553  0.640503  0.119501  1
  O  O22  1  0.206755  0.793419  0.837537  1
  O  O23  1  0.793419  0.206755  0.662463  1
  O  O24  1  0.793245  0.206581  0.162463  1
  O  O25  1  0.206581  0.793245  0.337537  1
  O  O26  1  0.811964  0.811964  0.750000  1
  O  O27  1  0.188036  0.188036  0.250000  1
