# generated using pymatgen
data_Ti7Co3N10
_symmetry_space_group_name_H-M   'P 1'
_cell_length_a   14.12434197
_cell_length_b   4.97446466
_cell_length_c   7.95149030
_cell_angle_alpha   71.77430943
_cell_angle_beta   27.34338997
_cell_angle_gamma   89.99752245
_symmetry_Int_Tables_number   1
_chemical_formula_structural   Ti7Co3N10
_chemical_formula_sum   'Ti7 Co3 N10'
_cell_volume   187.95386223
_cell_formula_units_Z   1
loop_
 _symmetry_equiv_pos_site_id
 _symmetry_equiv_pos_as_xyz
  1  'x, y, z'
loop_
 _atom_site_type_symbol
 _atom_site_label
 _atom_site_symmetry_multiplicity
 _atom_site_fract_x
 _atom_site_fract_y
 _atom_site_fract_z
 _atom_site_occupancy
  Ti  Ti0  1  0.099506  0.493901  0.998480  1
  Ti  Ti1  1  0.199905  0.997566  0.998768  1
  Ti  Ti2  1  0.399472  0.008487  -0.001086  1
  Ti  Ti3  1  0.500598  0.503286  -0.000943  1
  Ti  Ti4  1  0.602219  0.008802  0.998636  1
  Ti  Ti5  1  0.801927  0.997598  -0.001213  1
  Ti  Ti6  1  0.902388  0.493674  -0.001167  1
  Co  Co7  1  0.000924  0.940551  0.999249  1
  Co  Co8  1  0.296559  0.495495  0.998742  1
  Co  Co9  1  0.704632  0.495696  0.999052  1
  N  N10  1  0.048827  0.581370  0.504102  1
  N  N11  1  0.147426  0.075924  0.509000  1
  N  N12  1  0.263057  0.614702  0.474444  1
  N  N13  1  0.343939  0.076131  0.508860  1
  N  N14  1  0.448274  0.581904  0.503151  1
  N  N15  1  0.553694  0.086026  0.494131  1
  N  N16  1  0.657390  0.585498  0.489397  1
  N  N17  1  0.738934  0.090548  0.522695  1
  N  N18  1  0.853950  0.586007  0.489025  1
  N  N19  1  0.953539  0.087392  0.492627  1
