# generated using pymatgen
data_Ti7Cr12O48
_symmetry_space_group_name_H-M   'P 1'
_cell_length_a   5.04251937
_cell_length_b   10.48460046
_cell_length_c   17.45707477
_cell_angle_alpha   90.18952771
_cell_angle_beta   91.07304463
_cell_angle_gamma   90.16844570
_symmetry_Int_Tables_number   1
_chemical_formula_structural   Ti7Cr12O48
_chemical_formula_sum   'Ti7 Cr12 O48'
_cell_volume   922.76355073
_cell_formula_units_Z   1
loop_
 _symmetry_equiv_pos_site_id
 _symmetry_equiv_pos_as_xyz
  1  'x, y, z'
loop_
 _atom_site_type_symbol
 _atom_site_label
 _atom_site_symmetry_multiplicity
 _atom_site_fract_x
 _atom_site_fract_y
 _atom_site_fract_z
 _atom_site_occupancy
  Ti  Ti0  1  0.093899  0.258800  0.252024  1
  Ti  Ti1  1  0.257182  0.080181  0.973123  1
  Ti  Ti2  1  0.285506  0.929938  0.476427  1
  Ti  Ti3  1  0.715173  0.432624  0.523801  1
  Ti  Ti4  1  0.736559  0.572670  0.019431  1
  Ti  Ti5  1  0.744377  0.915448  0.035362  1
  Ti  Ti6  1  0.925258  0.747291  0.752063  1
  Cr  Cr7  1  0.202567  0.755704  0.943175  1
  Cr  Cr8  1  0.205560  0.022002  0.657048  1
  Cr  Cr9  1  0.210379  0.474735  0.653328  1
  Cr  Cr10  1  0.268622  0.527289  0.154176  1
  Cr  Cr11  1  0.271034  0.973081  0.160448  1
  Cr  Cr12  1  0.262516  0.252045  0.445468  1
  Cr  Cr13  1  0.735222  0.751579  0.553990  1
  Cr  Cr14  1  0.721005  0.025148  0.846820  1
  Cr  Cr15  1  0.734186  0.479244  0.842114  1
  Cr  Cr16  1  0.793999  0.524671  0.343481  1
  Cr  Cr17  1  0.785377  0.978038  0.345677  1
  Cr  Cr18  1  0.786859  0.246988  0.058949  1
  O  O19  1  0.060034  0.221936  0.995336  1
  O  O20  1  0.046401  0.607824  0.368195  1
  O  O21  1  0.051822  0.900648  0.384670  1
  O  O22  1  0.128854  0.625993  0.208939  1
  O  O23  1  0.091273  0.873740  0.204078  1
  O  O24  1  0.117607  0.116685  0.466740  1
  O  O25  1  0.053830  0.366370  0.467566  1
  O  O26  1  0.078234  0.997212  0.068864  1
  O  O27  1  0.062312  0.506389  0.078999  1
  O  O28  1  0.120385  0.752543  0.845331  1
  O  O29  1  0.125682  0.613241  0.697716  1
  O  O30  1  0.109461  0.881959  0.703170  1
  O  O31  1  0.310335  0.117395  0.204054  1
  O  O32  1  0.304902  0.381950  0.201195  1
  O  O33  1  0.317191  0.255183  0.350518  1
  O  O34  1  0.381278  0.988857  0.572331  1
  O  O35  1  0.428631  0.500671  0.580015  1
  O  O36  1  0.416958  0.894351  0.968726  1
  O  O37  1  0.438988  0.638607  0.973297  1
  O  O38  1  0.403771  0.102659  0.711232  1
  O  O39  1  0.358970  0.381484  0.710256  1
  O  O40  1  0.440369  0.102508  0.879449  1
  O  O41  1  0.464640  0.408782  0.863549  1
  O  O42  1  0.454479  0.769472  0.497091  1
  O  O43  1  0.542162  0.270196  0.501648  1
  O  O44  1  0.556637  0.587765  0.120513  1
  O  O45  1  0.567076  0.894550  0.120514  1
  O  O46  1  0.600374  0.607956  0.290743  1
  O  O47  1  0.633386  0.888648  0.285972  1
  O  O48  1  0.582160  0.106501  0.033275  1
  O  O49  1  0.631267  0.376922  0.029047  1
  O  O50  1  0.567116  0.002883  0.419212  1
  O  O51  1  0.617689  0.488335  0.426550  1
  O  O52  1  0.679280  0.754696  0.647154  1
  O  O53  1  0.689473  0.619456  0.789351  1
  O  O54  1  0.679794  0.886755  0.800636  1
  O  O55  1  0.875812  0.114790  0.302442  1
  O  O56  1  0.882535  0.382091  0.295300  1
  O  O57  1  0.878829  0.241255  0.151770  1
  O  O58  1  0.898148  0.522413  0.929135  1
  O  O59  1  0.919618  0.989855  0.927820  1
  O  O60  1  0.879338  0.614393  0.533010  1
  O  O61  1  0.945623  0.865670  0.531918  1
  O  O62  1  0.892047  0.119217  0.797171  1
  O  O63  1  0.917224  0.383640  0.795267  1
  O  O64  1  0.956325  0.107648  0.633563  1
  O  O65  1  0.942445  0.397771  0.614320  1
  O  O66  1  0.918777  0.751267  0.012002  1
