# generated using pymatgen
data_Ti7Fe13O30
_symmetry_space_group_name_H-M   'P 1'
_cell_length_a   5.54231840
_cell_length_b   27.91235643
_cell_length_c   15.02454922
_cell_angle_alpha   17.68709614
_cell_angle_beta   50.72151239
_cell_angle_gamma   55.17075120
_symmetry_Int_Tables_number   1
_chemical_formula_structural   Ti7Fe13O30
_chemical_formula_sum   'Ti7 Fe13 O30'
_cell_volume   541.52978056
_cell_formula_units_Z   1
loop_
 _symmetry_equiv_pos_site_id
 _symmetry_equiv_pos_as_xyz
  1  'x, y, z'
loop_
 _atom_site_type_symbol
 _atom_site_label
 _atom_site_symmetry_multiplicity
 _atom_site_fract_x
 _atom_site_fract_y
 _atom_site_fract_z
 _atom_site_occupancy
  Ti  Ti0  1  0.857143  0.040230  0.832697  1
  Ti  Ti1  1  0.135874  0.768597  0.150176  1
  Ti  Ti2  1  0.850237  0.239414  0.836629  1
  Ti  Ti3  1  0.850077  0.425861  0.859112  1
  Ti  Ti4  1  0.358428  0.929118  0.353303  1
  Ti  Ti5  1  0.867469  0.623994  0.856969  1
  Ti  Ti6  1  0.847347  0.824183  0.865462  1
  Fe  Fe7  1  0.144615  0.170566  0.148944  1
  Fe  Fe8  1  0.363928  0.131126  0.349258  1
  Fe  Fe9  1  0.149266  0.370988  0.145677  1
  Fe  Fe10  1  0.356450  0.325578  0.361533  1
  Fe  Fe11  1  0.642665  0.067682  0.649386  1
  Fe  Fe12  1  0.150356  0.569070  0.148087  1
  Fe  Fe13  1  0.359407  0.525950  0.359339  1
  Fe  Fe14  1  0.638897  0.276747  0.635670  1
  Fe  Fe15  1  0.342819  0.729268  0.357826  1
  Fe  Fe16  1  0.641478  0.469830  0.649709  1
  Fe  Fe17  1  0.149472  0.970887  0.145225  1
  Fe  Fe18  1  0.658569  0.672942  0.636347  1
  Fe  Fe19  1  0.645782  0.870924  0.645138  1
  O  O20  1  0.730182  0.054551  0.080309  1
  O  O21  1  0.572874  0.089481  0.240484  1
  O  O22  1  0.048379  0.169603  0.458809  1
  O  O23  1  0.761790  0.270535  0.049114  1
  O  O24  1  0.568686  0.304948  0.214608  1
  O  O25  1  0.048703  0.369617  0.458088  1
  O  O26  1  0.943787  0.016127  0.567999  1
  O  O27  1  0.449888  0.099169  0.770449  1
  O  O28  1  0.764543  0.479484  0.034441  1
  O  O29  1  0.214545  0.124598  0.967128  1
  O  O30  1  0.568832  0.504519  0.212772  1
  O  O31  1  0.059220  0.584888  0.427423  1
  O  O32  1  0.947255  0.214602  0.573988  1
  O  O33  1  0.449859  0.302771  0.768807  1
  O  O34  1  0.766257  0.677463  0.034686  1
  O  O35  1  0.218513  0.332869  0.952098  1
  O  O36  1  0.567887  0.704302  0.218048  1
  O  O37  1  0.068721  0.773656  0.443012  1
  O  O38  1  0.949798  0.417455  0.569055  1
  O  O39  1  0.442390  0.516169  0.744525  1
  O  O40  1  0.757813  0.854768  0.074605  1
  O  O41  1  0.223553  0.534872  0.951038  1
  O  O42  1  0.556794  0.901528  0.229516  1
  O  O43  1  0.064280  0.973245  0.435273  1
  O  O44  1  0.972767  0.619678  0.556425  1
  O  O45  1  0.433677  0.725604  0.729643  1
  O  O46  1  0.236905  0.740522  0.935449  1
  O  O47  1  0.945630  0.820204  0.567740  1
  O  O48  1  0.443681  0.897387  0.776297  1
  O  O49  1  0.212512  0.922429  0.971683  1
