# generated using pymatgen
data_Ti7Fe13O30
_symmetry_space_group_name_H-M   'P 1'
_cell_length_a   5.54639875
_cell_length_b   5.54552804
_cell_length_c   27.57495948
_cell_angle_alpha   55.47170392
_cell_angle_beta   55.45550803
_cell_angle_gamma   55.35576420
_symmetry_Int_Tables_number   1
_chemical_formula_structural   Ti7Fe13O30
_chemical_formula_sum   'Ti7 Fe13 O30'
_cell_volume   536.03815439
_cell_formula_units_Z   1
loop_
 _symmetry_equiv_pos_site_id
 _symmetry_equiv_pos_as_xyz
  1  'x, y, z'
loop_
 _atom_site_type_symbol
 _atom_site_label
 _atom_site_symmetry_multiplicity
 _atom_site_fract_x
 _atom_site_fract_y
 _atom_site_fract_z
 _atom_site_occupancy
  Ti  Ti0  1  0.136459  0.162581  0.030281  1
  Ti  Ti1  1  0.623842  0.659604  0.128958  1
  Ti  Ti2  1  0.155786  0.137858  0.428777  1
  Ti  Ti3  1  0.655043  0.634261  0.331036  1
  Ti  Ti4  1  0.150305  0.160400  0.626358  1
  Ti  Ti5  1  0.349939  0.356296  0.671655  1
  Ti  Ti6  1  0.352959  0.353725  0.871218  1
  Fe  Fe7  1  0.348044  0.362749  0.072595  1
  Fe  Fe8  1  0.135472  0.135439  0.231048  1
  Fe  Fe9  1  0.348135  0.358824  0.270796  1
  Fe  Fe10  1  0.831638  0.855666  0.172908  1
  Fe  Fe11  1  0.356236  0.342697  0.470545  1
  Fe  Fe12  1  0.863727  0.849722  0.371839  1
  Fe  Fe13  1  0.656030  0.650437  0.524265  1
  Fe  Fe14  1  0.144953  0.149423  0.830987  1
  Fe  Fe15  1  0.859750  0.868150  0.566724  1
  Fe  Fe16  1  0.648338  0.644085  0.729307  1
  Fe  Fe17  1  0.852857  0.850298  0.773949  1
  Fe  Fe18  1  0.643010  0.635419  0.931380  1
  Fe  Fe19  1  0.859393  0.843640  0.969016  1
  O  O20  1  0.046619  0.794078  0.084817  1
  O  O21  1  0.458003  0.035572  0.149229  1
  O  O22  1  0.782707  0.433622  0.007104  1
  O  O23  1  0.255886  0.569253  0.183797  1
  O  O24  1  0.552414  0.921005  0.052644  1
  O  O25  1  0.047002  0.738516  0.291097  1
  O  O26  1  0.917085  0.268679  0.110715  1
  O  O27  1  0.421689  0.057442  0.352115  1
  O  O28  1  0.735528  0.462388  0.207583  1
  O  O29  1  0.285759  0.540457  0.386549  1
  O  O30  1  0.565696  0.936010  0.253604  1
  O  O31  1  0.058504  0.768355  0.487992  1
  O  O32  1  0.933389  0.285770  0.308637  1
  O  O33  1  0.431655  0.052839  0.557325  1
  O  O34  1  0.774789  0.417270  0.412069  1
  O  O35  1  0.234171  0.538009  0.593347  1
  O  O36  1  0.534053  0.954822  0.449717  1
  O  O37  1  0.071842  0.745742  0.686743  1
  O  O38  1  0.956254  0.236916  0.511539  1
  O  O39  1  0.433356  0.074512  0.746534  1
  O  O40  1  0.749859  0.417481  0.616484  1
  O  O41  1  0.275654  0.533484  0.789303  1
  O  O42  1  0.546971  0.953589  0.650961  1
  O  O43  1  0.071280  0.743222  0.884335  1
  O  O44  1  0.961372  0.259755  0.709268  1
  O  O45  1  0.432005  0.071493  0.948589  1
  O  O46  1  0.736739  0.432441  0.814064  1
  O  O47  1  0.266475  0.537910  0.988912  1
  O  O48  1  0.539115  0.945497  0.853956  1
  O  O49  1  0.952212  0.262593  0.907326  1
