# generated using pymatgen
data_Ti7(Fe3O8)3
_symmetry_space_group_name_H-M   'P 1'
_cell_length_a   5.61262689
_cell_length_b   22.33538812
_cell_length_c   20.46524816
_cell_angle_alpha   12.87671536
_cell_angle_beta   50.95856859
_cell_angle_gamma   54.69078836
_symmetry_Int_Tables_number   1
_chemical_formula_structural   Ti7(Fe3O8)3
_chemical_formula_sum   'Ti7 Fe9 O24'
_cell_volume   434.32377724
_cell_formula_units_Z   1
loop_
 _symmetry_equiv_pos_site_id
 _symmetry_equiv_pos_as_xyz
  1  'x, y, z'
loop_
 _atom_site_type_symbol
 _atom_site_label
 _atom_site_symmetry_multiplicity
 _atom_site_fract_x
 _atom_site_fract_y
 _atom_site_fract_z
 _atom_site_occupancy
  Ti  Ti0  1  0.141590  0.427797  0.145209  1
  Ti  Ti1  1  0.145128  0.680874  0.141836  1
  Ti  Ti2  1  0.854086  0.077568  0.848792  1
  Ti  Ti3  1  0.352534  0.819696  0.360558  1
  Ti  Ti4  1  0.870022  0.330158  0.844332  1
  Ti  Ti5  1  0.843875  0.557899  0.872083  1
  Ti  Ti6  1  0.854162  0.822121  0.856193  1
  Fe  Fe7  1  0.140236  0.177026  0.149299  1
  Fe  Fe8  1  0.353388  0.077159  0.349649  1
  Fe  Fe9  1  0.353753  0.325269  0.352703  1
  Fe  Fe10  1  0.356605  0.570664  0.353649  1
  Fe  Fe11  1  0.640185  0.171722  0.652502  1
  Fe  Fe12  1  0.149668  0.923294  0.146522  1
  Fe  Fe13  1  0.655224  0.435144  0.634350  1
  Fe  Fe14  1  0.639994  0.679111  0.644255  1
  Fe  Fe15  1  0.644197  0.921497  0.650682  1
  O  O16  1  0.730306  0.054521  0.074380  1
  O  O17  1  0.566849  0.075469  0.215660  1
  O  O18  1  0.046239  0.117491  0.436277  1
  O  O19  1  0.766539  0.337249  0.035639  1
  O  O20  1  0.557082  0.322061  0.224447  1
  O  O21  1  0.059645  0.366803  0.435658  1
  O  O22  1  0.783567  0.575217  0.046058  1
  O  O23  1  0.563005  0.575628  0.218973  1
  O  O24  1  0.057661  0.589356  0.464103  1
  O  O25  1  0.944177  0.133729  0.564087  1
  O  O26  1  0.451993  0.186436  0.765424  1
  O  O27  1  0.774619  0.815262  0.058131  1
  O  O28  1  0.215541  0.165492  0.966506  1
  O  O29  1  0.564216  0.825217  0.222011  1
  O  O30  1  0.081869  0.865868  0.425233  1
  O  O31  1  0.959966  0.378238  0.566777  1
  O  O32  1  0.439616  0.474501  0.729454  1
  O  O33  1  0.217208  0.428436  0.950911  1
  O  O34  1  0.971254  0.629167  0.565887  1
  O  O35  1  0.437662  0.680757  0.776974  1
  O  O36  1  0.221070  0.682222  0.946036  1
  O  O37  1  0.945942  0.878788  0.565305  1
  O  O38  1  0.439172  0.926527  0.780288  1
  O  O39  1  0.210154  0.918565  0.963165  1
