# generated using pymatgen
data_Ti7(Fe3O8)3
_symmetry_space_group_name_H-M   'P 1'
_cell_length_a   5.59324554
_cell_length_b   9.10855978
_cell_length_c   9.12768262
_cell_angle_alpha   68.62816513
_cell_angle_beta   95.17638024
_cell_angle_gamma   94.99470831
_symmetry_Int_Tables_number   1
_chemical_formula_structural   Ti7(Fe3O8)3
_chemical_formula_sum   'Ti7 Fe9 O24'
_cell_volume   430.54262117
_cell_formula_units_Z   1
loop_
 _symmetry_equiv_pos_site_id
 _symmetry_equiv_pos_as_xyz
  1  'x, y, z'
loop_
 _atom_site_type_symbol
 _atom_site_label
 _atom_site_symmetry_multiplicity
 _atom_site_fract_x
 _atom_site_fract_y
 _atom_site_fract_z
 _atom_site_occupancy
  Ti  Ti0  1  0.203483  0.072275  0.567259  1
  Ti  Ti1  1  0.215791  0.574104  0.073262  1
  Ti  Ti2  1  0.293564  0.423959  0.432042  1
  Ti  Ti3  1  0.711693  0.571769  0.574479  1
  Ti  Ti4  1  0.799787  0.426698  0.932743  1
  Ti  Ti5  1  0.781364  0.925533  0.420352  1
  Ti  Ti6  1  0.293875  0.931518  0.924098  1
  Fe  Fe7  1  0.307959  0.174568  0.171295  1
  Fe  Fe8  1  0.716514  0.074455  0.071749  1
  Fe  Fe9  1  0.787134  0.175143  0.679817  1
  Fe  Fe10  1  0.710883  0.322923  0.324387  1
  Fe  Fe11  1  0.209884  0.321057  0.827075  1
  Fe  Fe12  1  0.205554  0.823324  0.320164  1
  Fe  Fe13  1  0.290247  0.678670  0.677187  1
  Fe  Fe14  1  0.793469  0.679172  0.178477  1
  Fe  Fe15  1  0.715545  0.820279  0.823454  1
  O  O16  1  0.151202  0.039495  0.373628  1
  O  O17  1  0.630648  0.113165  0.280398  1
  O  O18  1  0.155671  0.111143  0.781468  1
  O  O19  1  0.015619  0.283985  0.476777  1
  O  O20  1  0.644036  0.017723  0.883363  1
  O  O21  1  0.000582  0.222065  0.038184  1
  O  O22  1  0.470327  0.218011  0.526439  1
  O  O23  1  0.342067  0.375940  0.215745  1
  O  O24  1  0.164256  0.604738  0.281549  1
  O  O25  1  0.516006  0.282458  0.981754  1
  O  O26  1  0.848373  0.481624  0.109757  1
  O  O27  1  0.350595  0.479301  0.611427  1
  O  O28  1  0.147183  0.525282  0.889670  1
  O  O29  1  0.647272  0.521520  0.392323  1
  O  O30  1  0.477744  0.717094  0.026670  1
  O  O31  1  0.843343  0.386759  0.721614  1
  O  O32  1  0.663060  0.609965  0.784605  1
  O  O33  1  0.520423  0.782441  0.475420  1
  O  O34  1  0.032306  0.781603  0.975172  1
  O  O35  1  0.334687  0.984535  0.112629  1
  O  O36  1  0.976581  0.719182  0.521446  1
  O  O37  1  0.337917  0.888785  0.713466  1
  O  O38  1  0.838576  0.881943  0.225101  1
  O  O39  1  0.854780  0.975799  0.603557  1
