# generated using pymatgen
data_Ti7Ni3N10
_symmetry_space_group_name_H-M   'P 1'
_cell_length_a   14.23386184
_cell_length_b   5.02841100
_cell_length_c   8.00715511
_cell_angle_alpha   71.69985592
_cell_angle_beta   27.27447181
_cell_angle_gamma   89.99999965
_symmetry_Int_Tables_number   1
_chemical_formula_structural   Ti7Ni3N10
_chemical_formula_sum   'Ti7 Ni3 N10'
_cell_volume   191.28519037
_cell_formula_units_Z   1
loop_
 _symmetry_equiv_pos_site_id
 _symmetry_equiv_pos_as_xyz
  1  'x, y, z'
loop_
 _atom_site_type_symbol
 _atom_site_label
 _atom_site_symmetry_multiplicity
 _atom_site_fract_x
 _atom_site_fract_y
 _atom_site_fract_z
 _atom_site_occupancy
  Ti  Ti0  1  0.099399  0.494720  0.000000  1
  Ti  Ti1  1  0.200513  0.998729  0.000000  1
  Ti  Ti2  1  0.399599  0.012237  1.000000  1
  Ti  Ti3  1  0.500000  0.504358  0.000000  1
  Ti  Ti4  1  0.600401  0.012237  0.000000  1
  Ti  Ti5  1  0.799487  0.998729  1.000000  1
  Ti  Ti6  1  0.900601  0.494720  1.000000  1
  Ni  Ni7  1  1.000000  0.933768  0.000000  1
  Ni  Ni8  1  0.295526  0.486762  1.000000  1
  Ni  Ni9  1  0.704474  0.486762  0.000000  1
  N  N10  1  0.046870  0.588030  0.507100  1
  N  N11  1  0.145623  0.077839  0.510135  1
  N  N12  1  0.261868  0.618050  0.476265  1
  N  N13  1  0.344243  0.077839  0.510135  1
  N  N14  1  0.446030  0.588030  0.507100  1
  N  N15  1  0.553970  0.095130  0.492900  1
  N  N16  1  0.655757  0.587974  0.489865  1
  N  N17  1  0.738132  0.094314  0.523735  1
  N  N18  1  0.854377  0.587974  0.489865  1
  N  N19  1  0.953130  0.095130  0.492900  1
