# generated using pymatgen
data_Ti7(WO5)6
_symmetry_space_group_name_H-M   'P 1'
_cell_length_a   5.24307620
_cell_length_b   5.22889363
_cell_length_c   23.46266450
_cell_angle_alpha   89.94325281
_cell_angle_beta   90.16835183
_cell_angle_gamma   60.07245778
_symmetry_Int_Tables_number   1
_chemical_formula_structural   Ti7(WO5)6
_chemical_formula_sum   'Ti7 W6 O30'
_cell_volume   557.46415867
_cell_formula_units_Z   1
loop_
 _symmetry_equiv_pos_site_id
 _symmetry_equiv_pos_as_xyz
  1  'x, y, z'
loop_
 _atom_site_type_symbol
 _atom_site_label
 _atom_site_symmetry_multiplicity
 _atom_site_fract_x
 _atom_site_fract_y
 _atom_site_fract_z
 _atom_site_occupancy
  Ti  Ti0  1  0.333849  0.330388  0.282862  1
  Ti  Ti1  1  0.332723  0.333467  0.012995  1
  Ti  Ti2  1  0.334675  0.332202  0.891344  1
  Ti  Ti3  1  0.669359  0.664700  0.982407  1
  Ti  Ti4  1  0.666165  0.667547  0.719421  1
  Ti  Ti5  1  0.332861  0.333086  0.692985  1
  Ti  Ti6  1  0.667163  0.668136  0.308439  1
  W  W7  1  0.332603  0.333766  0.407295  1
  W  W8  1  0.666241  0.668619  0.110784  1
  W  W9  1  0.666602  0.667321  0.593910  1
  W  W10  1  0.000993  0.998724  0.203156  1
  W  W11  1  0.999786  0.000442  0.500468  1
  W  W12  1  0.999584  0.000018  0.804125  1
  O  O13  1  0.940815  0.727827  0.150384  1
  O  O14  1  0.333001  0.911052  0.550483  1
  O  O15  1  0.012665  0.570579  0.347982  1
  O  O16  1  0.990869  0.688505  0.747917  1
  O  O17  1  0.406140  0.022512  0.947959  1
  O  O18  1  0.265418  0.670301  0.844807  1
  O  O19  1  0.241728  0.668598  0.450850  1
  O  O20  1  0.582033  0.985786  0.653891  1
  O  O21  1  0.324536  0.670483  0.253646  1
  O  O22  1  0.978336  0.427516  0.048703  1
  O  O23  1  0.431271  0.592653  0.048861  1
  O  O24  1  0.671836  0.063892  0.844765  1
  O  O25  1  0.434512  0.580636  0.653834  1
  O  O26  1  0.661718  0.998751  0.254355  1
  O  O27  1  0.088949  0.244704  0.450842  1
  O  O28  1  0.909970  0.756856  0.550276  1
  O  O29  1  0.321577  0.991040  0.747886  1
  O  O30  1  0.565662  0.417686  0.347844  1
  O  O31  1  0.338843  0.936974  0.149609  1
  O  O32  1  0.572397  0.404784  0.947864  1
  O  O33  1  0.024442  0.570897  0.947841  1
  O  O34  1  0.687979  0.321072  0.747971  1
  O  O35  1  0.411860  0.016540  0.348066  1
  O  O36  1  0.758047  0.332817  0.550216  1
  O  O37  1  0.731367  0.334701  0.150916  1
  O  O38  1  0.597061  0.975140  0.048867  1
  O  O39  1  0.998089  0.331785  0.253721  1
  O  O40  1  0.984647  0.433500  0.654126  1
  O  O41  1  0.666268  0.089763  0.450593  1
  O  O42  1  0.065062  0.264540  0.844735  1
