# generated using pymatgen
data_Ti2Cr3O12
_symmetry_space_group_name_H-M   'P 1'
_cell_length_a   12.79563695
_cell_length_b   9.14817325
_cell_length_c   9.17829729
_cell_angle_alpha   89.99781947
_cell_angle_beta   90.00339530
_cell_angle_gamma   89.99455465
_symmetry_Int_Tables_number   1
_chemical_formula_structural   Ti2Cr3O12
_chemical_formula_sum   'Ti8 Cr12 O48'
_cell_volume   1074.38121822
_cell_formula_units_Z   4
loop_
 _symmetry_equiv_pos_site_id
 _symmetry_equiv_pos_as_xyz
  1  'x, y, z'
loop_
 _atom_site_type_symbol
 _atom_site_label
 _atom_site_symmetry_multiplicity
 _atom_site_fract_x
 _atom_site_fract_y
 _atom_site_fract_z
 _atom_site_occupancy
  Ti  Ti0  1  0.119149  0.265301  0.971554  1
  Ti  Ti1  1  0.119117  0.734677  0.471416  1
  Ti  Ti2  1  0.380839  0.234629  0.471452  1
  Ti  Ti3  1  0.380879  0.765253  0.971613  1
  Ti  Ti4  1  0.619133  0.234693  0.028346  1
  Ti  Ti5  1  0.619212  0.765306  0.528668  1
  Ti  Ti6  1  0.880895  0.265417  0.528379  1
  Ti  Ti7  1  0.880885  0.734772  0.028540  1
  Cr  Cr8  1  0.000014  0.464758  0.249921  1
  Cr  Cr9  1  0.999987  0.535341  0.750033  1
  Cr  Cr10  1  0.142519  0.109272  0.603513  1
  Cr  Cr11  1  0.142519  0.890553  0.103677  1
  Cr  Cr12  1  0.357455  0.390532  0.103480  1
  Cr  Cr13  1  0.357419  0.609514  0.603806  1
  Cr  Cr14  1  0.499908  0.035254  0.750025  1
  Cr  Cr15  1  0.500116  0.964624  0.250028  1
  Cr  Cr16  1  0.642597  0.390620  0.396350  1
  Cr  Cr17  1  0.642569  0.609362  0.896395  1
  Cr  Cr18  1  0.857427  0.109283  0.896504  1
  Cr  Cr19  1  0.857504  0.890475  0.396298  1
  O  O20  1  0.024095  0.165321  0.555177  1
  O  O21  1  0.024319  0.834543  0.055323  1
  O  O22  1  0.080674  0.580304  0.357874  1
  O  O23  1  0.080587  0.419575  0.857993  1
  O  O24  1  0.080509  0.349433  0.142557  1
  O  O25  1  0.080366  0.650416  0.642392  1
  O  O26  1  0.152798  0.069972  0.082266  1
  O  O27  1  0.152669  0.930126  0.582401  1
  O  O28  1  0.162584  0.150830  0.776846  1
  O  O29  1  0.162639  0.849138  0.276758  1
  O  O30  1  0.232064  0.191011  0.494431  1
  O  O31  1  0.232146  0.808979  0.994422  1
  O  O32  1  0.267941  0.308899  0.994241  1
  O  O33  1  0.267859  0.691100  0.494506  1
  O  O34  1  0.337309  0.650885  0.776755  1
  O  O35  1  0.337261  0.349026  0.276685  1
  O  O36  1  0.347314  0.430080  0.582296  1
  O  O37  1  0.347212  0.569883  0.082273  1
  O  O38  1  0.419484  0.150570  0.642568  1
  O  O39  1  0.419517  0.849515  0.142679  1
  O  O40  1  0.419406  0.080319  0.357911  1
  O  O41  1  0.419265  0.919674  0.858019  1
  O  O42  1  0.475809  0.665509  0.555260  1
  O  O43  1  0.475795  0.334558  0.055217  1
  O  O44  1  0.524207  0.334648  0.444802  1
  O  O45  1  0.524184  0.665447  0.944739  1
  O  O46  1  0.580635  0.080374  0.142065  1
  O  O47  1  0.580703  0.919731  0.642130  1
  O  O48  1  0.580449  0.150460  0.857354  1
  O  O49  1  0.580561  0.849473  0.357530  1
  O  O50  1  0.652727  0.430140  0.917743  1
  O  O51  1  0.652817  0.570010  0.417641  1
  O  O52  1  0.662796  0.349127  0.223428  1
  O  O53  1  0.662603  0.650797  0.723019  1
  O  O54  1  0.732158  0.308971  0.505699  1
  O  O55  1  0.732108  0.691034  0.005336  1
  O  O56  1  0.767894  0.191138  0.005517  1
  O  O57  1  0.767896  0.808992  0.505755  1
  O  O58  1  0.837223  0.150990  0.723075  1
  O  O59  1  0.837385  0.849186  0.223418  1
  O  O60  1  0.847179  0.070082  0.417820  1
  O  O61  1  0.847319  0.930274  0.917619  1
  O  O62  1  0.919517  0.349413  0.357320  1
  O  O63  1  0.919594  0.650484  0.857523  1
  O  O64  1  0.919413  0.419613  0.641963  1
  O  O65  1  0.919274  0.580299  0.142112  1
  O  O66  1  0.975828  0.165420  0.944734  1
  O  O67  1  0.975764  0.834595  0.444807  1
