# generated using pymatgen
data_Ti4(Fe2O5)3
_symmetry_space_group_name_H-M   'P 1'
_cell_length_a   8.91544837
_cell_length_b   7.64729480
_cell_length_c   9.16157631
_cell_angle_alpha   71.48277710
_cell_angle_beta   99.32294906
_cell_angle_gamma   113.49411887
_symmetry_Int_Tables_number   1
_chemical_formula_structural   Ti4(Fe2O5)3
_chemical_formula_sum   'Ti8 Fe12 O30'
_cell_volume   542.73938449
_cell_formula_units_Z   2
loop_
 _symmetry_equiv_pos_site_id
 _symmetry_equiv_pos_as_xyz
  1  'x, y, z'
loop_
 _atom_site_type_symbol
 _atom_site_label
 _atom_site_symmetry_multiplicity
 _atom_site_fract_x
 _atom_site_fract_y
 _atom_site_fract_z
 _atom_site_occupancy
  Ti  Ti0  1  0.856490  0.859623  0.425809  1
  Ti  Ti1  1  0.944598  0.743098  0.174980  1
  Ti  Ti2  1  0.743510  0.340377  0.774191  1
  Ti  Ti3  1  0.655402  0.456902  0.025020  1
  Ti  Ti4  1  0.460800  0.063097  0.621897  1
  Ti  Ti5  1  0.339300  0.531781  0.972762  1
  Ti  Ti6  1  0.260700  0.668219  0.227238  1
  Ti  Ti7  1  0.139200  0.136903  0.578103  1
  Fe  Fe8  1  0.744954  0.842938  0.777298  1
  Fe  Fe9  1  0.942859  0.239030  0.174228  1
  Fe  Fe10  1  0.855046  0.357062  0.422702  1
  Fe  Fe11  1  0.539027  0.933858  0.376385  1
  Fe  Fe12  1  0.340746  0.038255  0.972815  1
  Fe  Fe13  1  0.544067  0.437398  0.376033  1
  Fe  Fe14  1  0.459877  0.563279  0.623202  1
  Fe  Fe15  1  0.657141  0.960970  0.025772  1
  Fe  Fe16  1  0.060973  0.266142  0.823615  1
  Fe  Fe17  1  0.259254  0.161745  0.227185  1
  Fe  Fe18  1  0.140123  0.636721  0.576798  1
  Fe  Fe19  1  0.055933  0.762602  0.823967  1
  O  O20  1  0.985010  0.023612  0.755448  1
  O  O21  1  0.881021  0.206648  0.961511  1
  O  O22  1  0.912111  0.389836  0.652080  1
  O  O23  1  0.973227  0.163636  0.417988  1
  O  O24  1  0.809842  0.571408  0.838511  1
  O  O25  1  0.790158  0.628592  0.361489  1
  O  O26  1  0.590517  0.222229  0.967627  1
  O  O27  1  0.832480  0.430376  0.166223  1
  O  O28  1  0.626773  0.036364  0.782012  1
  O  O29  1  0.687889  0.810164  0.547920  1
  O  O30  1  0.518176  0.590492  0.853160  1
  O  O31  1  0.718979  0.993352  0.238489  1
  O  O32  1  0.767520  0.769624  0.033777  1
  O  O33  1  0.573836  0.365966  0.630003  1
  O  O34  1  0.614990  0.176388  0.444553  1
  O  O35  1  0.385994  0.824914  0.567321  1
  O  O36  1  0.424843  0.630752  0.370362  1
  O  O37  1  0.238549  0.243057  0.978440  1
  O  O38  1  0.491788  0.412634  0.151610  1
  O  O39  1  0.289658  0.016429  0.748753  1
  O  O40  1  0.310342  0.183571  0.451247  1
  O  O41  1  0.175157  0.569248  0.829638  1
  O  O42  1  0.361451  0.956943  0.221560  1
  O  O43  1  0.422472  0.772740  0.040876  1
  O  O44  1  0.214006  0.375086  0.632679  1
  O  O45  1  0.177528  0.427260  0.159124  1
  O  O46  1  0.026164  0.834034  0.569997  1
  O  O47  1  0.081824  0.609508  0.346840  1
  O  O48  1  0.108212  0.787366  0.048390  1
  O  O49  1  0.009483  0.977771  0.232373  1
