# generated using pymatgen
data_Ti8Fe35O64
_symmetry_space_group_name_H-M   'P 1'
_cell_length_a   8.56171163
_cell_length_b   8.53056676
_cell_length_c   17.11535389
_cell_angle_alpha   89.79632840
_cell_angle_beta   90.22791082
_cell_angle_gamma   89.93829052
_symmetry_Int_Tables_number   1
_chemical_formula_structural   Ti8Fe35O64
_chemical_formula_sum   'Ti8 Fe35 O64'
_cell_volume   1250.02277993
_cell_formula_units_Z   1
loop_
 _symmetry_equiv_pos_site_id
 _symmetry_equiv_pos_as_xyz
  1  'x, y, z'
loop_
 _atom_site_type_symbol
 _atom_site_label
 _atom_site_symmetry_multiplicity
 _atom_site_fract_x
 _atom_site_fract_y
 _atom_site_fract_z
 _atom_site_occupancy
  Ti  Ti0  1  0.114198  0.624885  0.572141  1
  Ti  Ti1  1  0.121459  0.368601  0.445558  1
  Ti  Ti2  1  0.135980  0.372405  0.945653  1
  Ti  Ti3  1  0.139634  0.117104  0.315585  1
  Ti  Ti4  1  0.145022  0.115649  0.809101  1
  Ti  Ti5  1  0.357379  0.877316  0.056949  1
  Ti  Ti6  1  0.363812  0.893116  0.560949  1
  Ti  Ti7  1  0.616151  0.621797  0.812337  1
  Fe  Fe8  1  0.003843  0.498953  0.253721  1
  Fe  Fe9  1  0.995120  0.489010  0.753409  1
  Fe  Fe10  1  0.117076  0.863179  0.182025  1
  Fe  Fe11  1  0.253152  0.743089  0.378214  1
  Fe  Fe12  1  0.244778  0.746858  0.878154  1
  Fe  Fe13  1  0.256487  0.241071  0.128883  1
  Fe  Fe14  1  0.256034  0.253022  0.630630  1
  Fe  Fe15  1  0.367004  0.621705  0.186225  1
  Fe  Fe16  1  0.368827  0.628419  0.688873  1
  Fe  Fe17  1  0.380887  0.373939  0.317230  1
  Fe  Fe18  1  0.382214  0.365054  0.816582  1
  Fe  Fe19  1  0.501059  0.507151  0.001330  1
  Fe  Fe20  1  0.487168  0.506035  0.499686  1
  Fe  Fe21  1  0.498026  0.000279  0.245819  1
  Fe  Fe22  1  0.507570  -0.003254  0.742600  1
  Fe  Fe23  1  0.617886  0.880143  0.435426  1
  Fe  Fe24  1  0.617308  0.887540  0.934436  1
  Fe  Fe25  1  0.620863  0.128992  0.055688  1
  Fe  Fe26  1  0.626881  0.624339  0.314426  1
  Fe  Fe27  1  0.627660  0.137527  0.555842  1
  Fe  Fe28  1  0.630242  0.373780  0.187039  1
  Fe  Fe29  1  0.629708  0.379257  0.681130  1
  Fe  Fe30  1  0.738224  0.751598  0.124408  1
  Fe  Fe31  1  0.748659  0.761288  0.625110  1
  Fe  Fe32  1  0.759397  0.244290  0.373754  1
  Fe  Fe33  1  0.763795  0.251117  0.874321  1
  Fe  Fe34  1  0.879661  0.629752  0.942275  1
  Fe  Fe35  1  0.869945  0.616731  0.442236  1
  Fe  Fe36  1  0.883874  0.384650  0.065337  1
  Fe  Fe37  1  0.873102  0.869302  0.311260  1
  Fe  Fe38  1  0.881526  0.872976  0.808059  1
  Fe  Fe39  1  0.874833  0.124947  0.185158  1
  Fe  Fe40  1  0.883930  0.125980  0.683307  1
  Fe  Fe41  1  0.993097  0.996284  0.497729  1
  Fe  Fe42  1  0.991481  0.008938  0.995150  1
  O  O43  1  0.120475  0.609305  0.442063  1
  O  O44  1  0.110432  0.602253  0.928770  1
  O  O45  1  0.121543  0.890261  0.318314  1
  O  O46  1  0.116236  0.889726  0.821174  1
  O  O47  1  0.125608  0.119690  0.198372  1
  O  O48  1  0.109944  0.136617  0.701639  1
  O  O49  1  0.113229  0.140230  0.431591  1
  O  O50  1  0.105833  0.145543  0.926629  1
  O  O51  1  0.129249  0.348034  0.054033  1
  O  O52  1  0.138598  0.396042  0.553021  1
  O  O53  1  0.139620  0.899911  0.059490  1
  O  O54  1  0.141694  0.862195  0.552487  1
  O  O55  1  0.138271  0.625354  0.194228  1
  O  O56  1  0.121039  0.601892  0.679792  1
  O  O57  1  0.137873  0.356313  0.318029  1
  O  O58  1  0.127121  0.357176  0.819479  1
  O  O59  1  0.391099  0.646008  0.069059  1
  O  O60  1  0.355686  0.639657  0.563221  1
  O  O61  1  0.352797  0.387964  0.431018  1
  O  O62  1  0.356240  0.394743  0.936478  1
  O  O63  1  0.358612  0.130883  0.306726  1
  O  O64  1  0.361881  0.113438  0.803517  1
  O  O65  1  0.375171  0.614645  0.308630  1
  O  O66  1  0.393065  0.634382  0.813931  1
  O  O67  1  0.372541  0.862277  0.181611  1
  O  O68  1  0.395742  0.866056  0.674133  1
  O  O69  1  0.385980  0.862511  0.444872  1
  O  O70  1  0.377153  0.857004  0.947683  1
  O  O71  1  0.386743  0.104811  0.070734  1
  O  O72  1  0.387465  0.105061  0.564752  1
  O  O73  1  0.383633  0.382873  0.193297  1
  O  O74  1  0.397439  0.390150  0.697301  1
  O  O75  1  0.609179  0.890854  0.061364  1
  O  O76  1  0.611324  0.882076  0.555002  1
  O  O77  1  0.612606  0.613313  0.191901  1
  O  O78  1  0.634364  0.618236  0.694944  1
  O  O79  1  0.615152  0.367896  0.309368  1
  O  O80  1  0.631390  0.392542  0.810817  1
  O  O81  1  0.619525  0.366987  0.067536  1
  O  O82  1  0.606823  0.369001  0.565097  1
  O  O83  1  0.639353  0.130751  0.940590  1
  O  O84  1  0.640618  0.116025  0.442004  1
  O  O85  1  0.634463  0.621164  0.927156  1
  O  O86  1  0.623504  0.633893  0.436692  1
  O  O87  1  0.631997  0.882024  0.316338  1
  O  O88  1  0.632084  0.858411  0.810535  1
  O  O89  1  0.624978  0.136364  0.183139  1
  O  O90  1  0.635871  0.138678  0.680506  1
  O  O91  1  0.862521  0.868850  0.430807  1
  O  O92  1  0.868958  0.864897  0.930824  1
  O  O93  1  0.862473  0.129715  0.064088  1
  O  O94  1  0.865522  0.107539  0.568010  1
  O  O95  1  0.865213  0.376860  0.189823  1
  O  O96  1  0.861027  0.361181  0.694568  1
  O  O97  1  0.871900  0.872584  0.192810  1
  O  O98  1  0.860863  0.888703  0.693981  1
  O  O99  1  0.877359  0.637192  0.314956  1
  O  O100  1  0.862884  0.634277  0.815837  1
  O  O101  1  0.851856  0.624382  0.055247  1
  O  O102  1  0.896450  0.651943  0.563036  1
  O  O103  1  0.892295  0.389273  0.937625  1
  O  O104  1  0.899435  0.378400  0.426506  1
  O  O105  1  0.895567  0.113169  0.309391  1
  O  O106  1  0.883250  0.110002  0.807800  1
