# generated using pymatgen
data_TiNiO3
_symmetry_space_group_name_H-M   'P 1'
_cell_length_a   5.50334733
_cell_length_b   10.99838360
_cell_length_c   10.98027018
_cell_angle_alpha   54.97823755
_cell_angle_beta   54.93347121
_cell_angle_gamma   54.79597162
_symmetry_Int_Tables_number   1
_chemical_formula_structural   TiNiO3
_chemical_formula_sum   'Ti8 Ni8 O24'
_cell_volume   414.19021255
_cell_formula_units_Z   8
loop_
 _symmetry_equiv_pos_site_id
 _symmetry_equiv_pos_as_xyz
  1  'x, y, z'
loop_
 _atom_site_type_symbol
 _atom_site_label
 _atom_site_symmetry_multiplicity
 _atom_site_fract_x
 _atom_site_fract_y
 _atom_site_fract_z
 _atom_site_occupancy
  Ti  Ti0  1  0.353338  0.179270  0.171820  1
  Ti  Ti1  1  0.147689  0.066557  0.577127  1
  Ti  Ti2  1  0.142767  0.585164  0.062933  1
  Ti  Ti3  1  0.137585  0.570186  0.572620  1
  Ti  Ti4  1  0.853846  0.424569  0.432190  1
  Ti  Ti5  1  0.856958  0.426727  0.928201  1
  Ti  Ti6  1  0.880842  0.926540  0.413186  1
  Ti  Ti7  1  0.817698  0.937398  0.928731  1
  Ni  Ni8  1  0.141711  0.070650  0.074188  1
  Ni  Ni9  1  0.343539  0.675623  0.176328  1
  Ni  Ni10  1  0.358821  0.171001  0.673563  1
  Ni  Ni11  1  0.645450  0.325699  0.326353  1
  Ni  Ni12  1  0.348009  0.673900  0.675224  1
  Ni  Ni13  1  0.650398  0.325562  0.822132  1
  Ni  Ni14  1  0.655222  0.819713  0.325686  1
  Ni  Ni15  1  0.639080  0.825913  0.821308  1
  O  O16  1  0.074228  0.373587  0.213183  1
  O  O17  1  0.428308  0.039044  0.370123  1
  O  O18  1  0.723659  0.221448  0.035166  1
  O  O19  1  0.230470  0.281964  0.473532  1
  O  O20  1  0.564862  0.472006  0.114346  1
  O  O21  1  0.052998  0.380900  0.721845  1
  O  O22  1  0.044506  0.871756  0.232709  1
  O  O23  1  0.950056  0.118708  0.283077  1
  O  O24  1  0.459215  0.021311  0.873820  1
  O  O25  1  0.439137  0.524057  0.385397  1
  O  O26  1  0.774230  0.219224  0.525372  1
  O  O27  1  0.762341  0.717502  0.027109  1
  O  O28  1  0.229069  0.281883  0.976424  1
  O  O29  1  0.232123  0.779140  0.474098  1
  O  O30  1  0.562828  0.472970  0.615585  1
  O  O31  1  0.562712  0.976732  0.118831  1
  O  O32  1  0.055639  0.884246  0.713402  1
  O  O33  1  0.946650  0.113905  0.779671  1
  O  O34  1  0.946859  0.610275  0.280329  1
  O  O35  1  0.436719  0.526888  0.883479  1
  O  O36  1  0.765966  0.715215  0.529518  1
  O  O37  1  0.220051  0.778865  0.971699  1
  O  O38  1  0.560243  0.972102  0.607240  1
  O  O39  1  0.944679  0.612046  0.782703  1
