# generated using pymatgen
data_TiZn2O4
_symmetry_space_group_name_H-M   'P 1'
_cell_length_a   6.11163955
_cell_length_b   12.20066280
_cell_length_c   10.40996822
_cell_angle_alpha   54.12572166
_cell_angle_beta   89.86391746
_cell_angle_gamma   90.00000000
_symmetry_Int_Tables_number   1
_chemical_formula_structural   TiZn2O4
_chemical_formula_sum   'Ti8 Zn16 O32'
_cell_volume   628.98038953
_cell_formula_units_Z   8
loop_
 _symmetry_equiv_pos_site_id
 _symmetry_equiv_pos_as_xyz
  1  'x, y, z'
loop_
 _atom_site_type_symbol
 _atom_site_label
 _atom_site_symmetry_multiplicity
 _atom_site_fract_x
 _atom_site_fract_y
 _atom_site_fract_z
 _atom_site_occupancy
  Ti  Ti0  1  0.236580  0.375652  0.751042  1
  Ti  Ti1  1  0.250527  0.873994  0.748711  1
  Ti  Ti2  1  0.500000  0.631905  0.500000  1
  Ti  Ti3  1  0.501976  0.121570  0.995978  1
  Ti  Ti4  1  0.498024  0.617548  0.004022  1
  Ti  Ti5  1  0.749473  0.122704  0.251289  1
  Ti  Ti6  1  0.763420  0.626694  0.248958  1
  Ti  Ti7  1  -0.000000  0.131200  0.500000  1
  Zn  Zn8  1  0.000965  0.120516  0.000667  1
  Zn  Zn9  1  0.999035  0.621183  0.999333  1
  Zn  Zn10  1  0.250320  0.124688  0.749627  1
  Zn  Zn11  1  0.242650  0.624009  0.751242  1
  Zn  Zn12  1  0.261894  0.308716  0.128436  1
  Zn  Zn13  1  0.256274  0.811397  0.124088  1
  Zn  Zn14  1  0.246887  0.439867  0.375129  1
  Zn  Zn15  1  0.243809  0.939900  0.373313  1
  Zn  Zn16  1  0.500000  0.128053  0.500000  1
  Zn  Zn17  1  0.753113  0.314996  0.624871  1
  Zn  Zn18  1  0.743726  0.435484  0.875912  1
  Zn  Zn19  1  0.738106  0.937152  0.871564  1
  Zn  Zn20  1  0.756191  0.813213  0.626687  1
  Zn  Zn21  1  0.749680  0.374315  0.250373  1
  Zn  Zn22  1  0.757350  0.875251  0.248758  1
  Zn  Zn23  1  -0.000000  0.628716  0.500000  1
  O  O24  1  0.030925  0.256217  0.751204  1
  O  O25  1  0.024003  0.490228  0.752021  1
  O  O26  1  0.028033  0.753875  0.753822  1
  O  O27  1  0.011750  0.996123  0.737280  1
  O  O28  1  0.265978  0.500661  0.516433  1
  O  O29  1  0.234151  0.000305  0.515805  1
  O  O30  1  0.262059  0.748875  0.984216  1
  O  O31  1  0.270333  0.250780  0.983212  1
  O  O32  1  0.268034  0.511294  0.001922  1
  O  O33  1  0.267936  0.012476  0.002600  1
  O  O34  1  0.231258  0.238770  0.496683  1
  O  O35  1  0.265719  0.738115  0.498453  1
  O  O36  1  0.487504  0.251064  0.765042  1
  O  O37  1  0.484360  0.754268  0.763110  1
  O  O38  1  0.482075  0.500739  0.733740  1
  O  O39  1  0.466192  0.997268  0.743619  1
  O  O40  1  0.515640  0.017376  0.236890  1
  O  O41  1  0.512496  0.516107  0.234958  1
  O  O42  1  0.517925  0.734479  0.266260  1
  O  O43  1  0.533808  0.240887  0.256381  1
  O  O44  1  0.731966  0.013215  0.998078  1
  O  O45  1  0.768742  0.235453  0.503317  1
  O  O46  1  0.732064  0.515077  0.997400  1
  O  O47  1  0.734281  0.736568  0.501547  1
  O  O48  1  0.765849  0.016110  0.484195  1
  O  O49  1  0.734022  0.517093  0.483567  1
  O  O50  1  0.737941  0.233091  0.015784  1
  O  O51  1  0.729667  0.733992  0.016788  1
  O  O52  1  0.971967  0.007697  0.246178  1
  O  O53  1  0.988250  0.233402  0.262720  1
  O  O54  1  0.969075  0.507420  0.248796  1
  O  O55  1  0.975997  0.742249  0.247979  1
