# generated using pymatgen
data_Ti9Fe11O30
_symmetry_space_group_name_H-M   'P 1'
_cell_length_a   5.58126180
_cell_length_b   5.55996965
_cell_length_c   27.69864361
_cell_angle_alpha   55.44823925
_cell_angle_beta   55.11304610
_cell_angle_gamma   55.16993754
_symmetry_Int_Tables_number   1
_chemical_formula_structural   Ti9Fe11O30
_chemical_formula_sum   'Ti9 Fe11 O30'
_cell_volume   540.57867096
_cell_formula_units_Z   1
loop_
 _symmetry_equiv_pos_site_id
 _symmetry_equiv_pos_as_xyz
  1  'x, y, z'
loop_
 _atom_site_type_symbol
 _atom_site_label
 _atom_site_symmetry_multiplicity
 _atom_site_fract_x
 _atom_site_fract_y
 _atom_site_fract_z
 _atom_site_occupancy
  Ti  Ti0  1  0.135864  0.173757  0.026591  1
  Ti  Ti1  1  0.145181  0.141739  0.228522  1
  Ti  Ti2  1  0.659162  0.650367  0.124133  1
  Ti  Ti3  1  0.353527  0.347063  0.472883  1
  Ti  Ti4  1  0.629030  0.650885  0.331742  1
  Ti  Ti5  1  0.346737  0.354727  0.671243  1
  Ti  Ti6  1  0.647199  0.645915  0.528597  1
  Ti  Ti7  1  0.146563  0.142010  0.831619  1
  Ti  Ti8  1  0.354559  0.341945  0.870812  1
  Fe  Fe9  1  0.345136  0.367327  0.071122  1
  Fe  Fe10  1  0.357009  0.355017  0.269460  1
  Fe  Fe11  1  0.141997  0.146487  0.428194  1
  Fe  Fe12  1  0.860245  0.846352  0.172698  1
  Fe  Fe13  1  0.136459  0.149239  0.629853  1
  Fe  Fe14  1  0.854827  0.860632  0.369970  1
  Fe  Fe15  1  0.853853  0.850298  0.572942  1
  Fe  Fe16  1  0.649625  0.646081  0.728128  1
  Fe  Fe17  1  0.864031  0.853578  0.769972  1
  Fe  Fe18  1  0.643173  0.639050  0.929670  1
  Fe  Fe19  1  0.855058  0.844111  0.968908  1
  O  O20  1  0.022937  0.794656  0.087919  1
  O  O21  1  0.411705  0.052559  0.156357  1
  O  O22  1  0.776179  0.433100  0.009306  1
  O  O23  1  0.295840  0.534117  0.186730  1
  O  O24  1  0.549278  0.917330  0.054940  1
  O  O25  1  0.068230  0.764110  0.283642  1
  O  O26  1  0.920506  0.278834  0.109800  1
  O  O27  1  0.456189  0.049953  0.346972  1
  O  O28  1  0.771753  0.414831  0.212534  1
  O  O29  1  0.271394  0.558747  0.384777  1
  O  O30  1  0.535953  0.933616  0.256081  1
  O  O31  1  0.062915  0.715847  0.492084  1
  O  O32  1  0.939536  0.294972  0.306480  1
  O  O33  1  0.455371  0.063712  0.543850  1
  O  O34  1  0.717105  0.451279  0.411114  1
  O  O35  1  0.283779  0.553384  0.586945  1
  O  O36  1  0.547815  0.938577  0.455972  1
  O  O37  1  0.054532  0.720424  0.692521  1
  O  O38  1  0.942539  0.283474  0.506717  1
  O  O39  1  0.418079  0.075031  0.751279  1
  O  O40  1  0.719332  0.445510  0.614068  1
  O  O41  1  0.269789  0.534952  0.791584  1
  O  O42  1  0.544895  0.954869  0.653148  1
  O  O43  1  0.090205  0.749117  0.882516  1
  O  O44  1  0.951562  0.268881  0.708774  1
  O  O45  1  0.426679  0.079289  0.949530  1
  O  O46  1  0.750993  0.407721  0.818450  1
  O  O47  1  0.250610  0.525356  0.992058  1
  O  O48  1  0.541805  0.957738  0.849764  1
  O  O49  1  0.973263  0.241435  0.907030  1
