# generated using pymatgen
data_Ti9Fe11O30
_symmetry_space_group_name_H-M   'P 1'
_cell_length_a   8.91496470
_cell_length_b   7.60586559
_cell_length_c   9.19062015
_cell_angle_alpha   72.18187629
_cell_angle_beta   98.98811639
_cell_angle_gamma   113.08114436
_symmetry_Int_Tables_number   1
_chemical_formula_structural   Ti9Fe11O30
_chemical_formula_sum   'Ti9 Fe11 O30'
_cell_volume   545.32665810
_cell_formula_units_Z   1
loop_
 _symmetry_equiv_pos_site_id
 _symmetry_equiv_pos_as_xyz
  1  'x, y, z'
loop_
 _atom_site_type_symbol
 _atom_site_label
 _atom_site_symmetry_multiplicity
 _atom_site_fract_x
 _atom_site_fract_y
 _atom_site_fract_z
 _atom_site_occupancy
  Ti  Ti0  1  0.740284  0.342457  0.774355  1
  Ti  Ti1  1  0.945619  0.739445  0.171993  1
  Ti  Ti2  1  0.853414  0.860638  0.422612  1
  Ti  Ti3  1  0.658652  0.459660  0.028193  1
  Ti  Ti4  1  0.458660  0.058892  0.624323  1
  Ti  Ti5  1  0.341238  0.538383  0.976637  1
  Ti  Ti6  1  0.261848  0.665455  0.227902  1
  Ti  Ti7  1  0.141827  0.135018  0.570929  1
  Ti  Ti8  1  0.057011  0.262773  0.827262  1
  Fe  Fe9  1  0.740293  0.835575  0.778387  1
  Fe  Fe10  1  0.942595  0.236190  0.177483  1
  Fe  Fe11  1  0.857347  0.358286  0.425141  1
  Fe  Fe12  1  0.452697  0.559199  0.623707  1
  Fe  Fe13  1  0.540651  0.940350  0.373828  1
  Fe  Fe14  1  0.342714  0.037317  0.975178  1
  Fe  Fe15  1  0.659212  0.962286  0.028967  1
  Fe  Fe16  1  0.540208  0.435697  0.377290  1
  Fe  Fe17  1  0.139990  0.637941  0.573369  1
  Fe  Fe18  1  0.257903  0.159435  0.223313  1
  Fe  Fe19  1  0.062534  0.762210  0.822976  1
  O  O20  1  0.976471  0.018956  0.764429  1
  O  O21  1  0.887492  0.214828  0.951434  1
  O  O22  1  0.913593  0.390015  0.653901  1
  O  O23  1  0.972640  0.168239  0.426344  1
  O  O24  1  0.808728  0.579702  0.834340  1
  O  O25  1  0.592878  0.229675  0.961218  1
  O  O26  1  0.791655  0.627629  0.361770  1
  O  O27  1  0.634309  0.029167  0.770458  1
  O  O28  1  0.829833  0.437161  0.170939  1
  O  O29  1  0.692512  0.812157  0.562906  1
  O  O30  1  0.518293  0.596655  0.851141  1
  O  O31  1  0.721099  0.986621  0.254852  1
  O  O32  1  0.772742  0.765061  0.021380  1
  O  O33  1  0.569331  0.359055  0.635414  1
  O  O34  1  0.606462  0.182421  0.441732  1
  O  O35  1  0.383521  0.823128  0.565943  1
  O  O36  1  0.226467  0.237148  0.966915  1
  O  O37  1  0.430680  0.631197  0.371217  1
  O  O38  1  0.287233  0.015764  0.748881  1
  O  O39  1  0.485739  0.410757  0.145291  1
  O  O40  1  0.310622  0.184564  0.452318  1
  O  O41  1  0.169122  0.562504  0.830323  1
  O  O42  1  0.366717  0.959838  0.219724  1
  O  O43  1  0.416524  0.772671  0.036448  1
  O  O44  1  0.209195  0.367895  0.639464  1
  O  O45  1  0.191733  0.431604  0.158833  1
  O  O46  1  0.027709  0.841887  0.569024  1
  O  O47  1  0.087948  0.614786  0.344864  1
  O  O48  1  0.110514  0.786113  0.050140  1
  O  O49  1  0.013539  0.975595  0.234509  1
