# generated using pymatgen
data_Tm5Ti5O17
_symmetry_space_group_name_H-M   'P 1'
_cell_length_a   3.80225434
_cell_length_b   5.42297034
_cell_length_c   31.87211774
_cell_angle_alpha   90.00000000
_cell_angle_beta   89.99770243
_cell_angle_gamma   90.00000000
_symmetry_Int_Tables_number   1
_chemical_formula_structural   Tm5Ti5O17
_chemical_formula_sum   'Tm10 Ti10 O34'
_cell_volume   657.18753009
_cell_formula_units_Z   2
loop_
 _symmetry_equiv_pos_site_id
 _symmetry_equiv_pos_as_xyz
  1  'x, y, z'
loop_
 _atom_site_type_symbol
 _atom_site_label
 _atom_site_symmetry_multiplicity
 _atom_site_fract_x
 _atom_site_fract_y
 _atom_site_fract_z
 _atom_site_occupancy
  Tm  Tm0  1  0.015163  0.182154  0.019185  1
  Tm  Tm1  1  0.014646  0.742885  0.697862  1
  Tm  Tm2  1  0.015353  0.269765  0.792972  1
  Tm  Tm3  1  0.015039  0.320616  0.568274  1
  Tm  Tm4  1  0.015783  0.793921  0.891338  1
  Tm  Tm5  1  0.514646  0.257115  0.197862  1
  Tm  Tm6  1  0.515163  0.817846  0.519185  1
  Tm  Tm7  1  0.515353  0.730235  0.292972  1
  Tm  Tm8  1  0.515039  0.679384  0.068274  1
  Tm  Tm9  1  0.515783  0.206079  0.391338  1
  Ti  Ti10  1  0.014317  0.752318  0.206259  1
  Ti  Ti11  1  0.015251  0.257859  0.297121  1
  Ti  Ti12  1  0.015906  0.760550  0.381761  1
  Ti  Ti13  1  0.015849  0.284284  0.468371  1
  Ti  Ti14  1  0.514705  0.772881  0.619341  1
  Ti  Ti15  1  0.514317  0.247682  0.706259  1
  Ti  Ti16  1  0.515251  0.742141  0.797121  1
  Ti  Ti17  1  0.515906  0.239450  0.881761  1
  Ti  Ti18  1  0.515849  0.715716  0.968371  1
  Ti  Ti19  1  0.014705  0.227119  0.119341  1
  O  O20  1  0.014669  0.186299  0.718011  1
  O  O21  1  0.014994  0.688598  0.797902  1
  O  O22  1  0.015812  0.197899  0.870453  1
  O  O23  1  0.015037  0.457691  0.070307  1
  O  O24  1  0.014870  0.961071  0.081056  1
  O  O25  1  0.015826  0.746481  0.962969  1
  O  O26  1  0.014478  0.542267  0.162604  1
  O  O27  1  0.014439  0.070924  0.176263  1
  O  O28  1  0.014866  0.959163  0.268724  1
  O  O29  1  0.014167  0.451728  0.241890  1
  O  O30  1  0.515662  0.878830  0.851671  1
  O  O31  1  0.515374  0.390418  0.824955  1
  O  O32  1  0.515327  0.447554  0.008307  1
  O  O33  1  0.515190  0.948131  0.017566  1
  O  O34  1  0.515846  0.013200  0.927411  1
  O  O35  1  0.515952  0.532672  0.912218  1
  O  O36  1  0.514430  0.276823  0.126258  1
  O  O37  1  0.514669  0.813701  0.218011  1
  O  O38  1  0.514994  0.311402  0.297902  1
  O  O39  1  0.515812  0.802101  0.370453  1
  O  O40  1  0.515826  0.253519  0.462969  1
  O  O41  1  0.515037  0.542309  0.570307  1
  O  O42  1  0.514870  0.038929  0.581056  1
  O  O43  1  0.514478  0.457733  0.662604  1
  O  O44  1  0.514439  0.929076  0.676263  1
  O  O45  1  0.514167  0.548272  0.741890  1
  O  O46  1  0.514867  0.040837  0.768724  1
  O  O47  1  0.015662  0.121170  0.351671  1
  O  O48  1  0.015374  0.609582  0.324955  1
  O  O49  1  0.015846  0.986800  0.427411  1
  O  O50  1  0.015952  0.467328  0.412218  1
  O  O51  1  0.015327  0.552446  0.508307  1
  O  O52  1  0.015190  0.051869  0.517566  1
  O  O53  1  0.014430  0.723177  0.626258  1
