# generated using pymatgen
data_Tm10Ti6O27
_symmetry_space_group_name_H-M   'P 1'
_cell_length_a   7.36293057
_cell_length_b   7.52064244
_cell_length_c   14.23309145
_cell_angle_alpha   58.10317516
_cell_angle_beta   57.19388617
_cell_angle_gamma   59.28887797
_symmetry_Int_Tables_number   1
_chemical_formula_structural   Tm10Ti6O27
_chemical_formula_sum   'Tm10 Ti6 O27'
_cell_volume   533.87378438
_cell_formula_units_Z   1
loop_
 _symmetry_equiv_pos_site_id
 _symmetry_equiv_pos_as_xyz
  1  'x, y, z'
loop_
 _atom_site_type_symbol
 _atom_site_label
 _atom_site_symmetry_multiplicity
 _atom_site_fract_x
 _atom_site_fract_y
 _atom_site_fract_z
 _atom_site_occupancy
  Tm  Tm0  1  0.993165  0.007298  0.982210  1
  Tm  Tm1  1  0.993165  0.535117  0.982210  1
  Tm  Tm2  1  0.006068  0.501222  0.245744  1
  Tm  Tm3  1  0.982823  0.009417  0.249171  1
  Tm  Tm4  1  0.484363  0.500758  0.248952  1
  Tm  Tm5  1  0.963531  0.509307  0.758927  1
  Tm  Tm6  1  0.487625  0.487349  0.518839  1
  Tm  Tm7  1  0.484363  0.016975  0.248952  1
  Tm  Tm8  1  0.497601  0.527194  0.752888  1
  Tm  Tm9  1  0.497601  0.969430  0.752888  1
  Ti  Ti10  1  0.506495  -0.000181  0.996934  1
  Ti  Ti11  1  0.020713  0.995581  0.500021  1
  Ti  Ti12  1  0.020713  0.483663  0.500021  1
  Ti  Ti13  1  0.506835  0.987712  0.508871  1
  Ti  Ti14  1  0.021393  0.018333  0.720971  1
  Ti  Ti15  1  0.514207  0.476702  0.016194  1
  O  O16  1  0.195626  0.622758  0.029430  1
  O  O17  1  0.080624  0.090527  0.339787  1
  O  O18  1  0.080624  0.649274  0.339787  1
  O  O19  1  0.602422  0.168064  0.047155  1
  O  O20  1  0.364110  0.367064  0.200881  1
  O  O21  1  0.165533  0.133810  0.533423  1
  O  O22  1  0.376575  0.892188  0.169525  1
  O  O23  1  0.022315  0.674314  0.564528  1
  O  O24  1  0.360146  0.417870  0.445124  1
  O  O25  1  0.158298  0.182345  0.771855  1
  O  O26  1  0.602422  0.635205  0.047155  1
  O  O27  1  0.617616  0.100101  0.341091  1
  O  O28  1  0.662469  0.067446  0.544091  1
  O  O29  1  0.158298  0.615646  0.771855  1
  O  O30  1  0.864380  0.399392  0.183677  1
  O  O31  1  0.360146  0.831735  0.445124  1
  O  O32  1  0.359151  0.300677  0.933930  1
  O  O33  1  0.343055  0.887902  0.690571  1
  O  O34  1  0.662469  0.681903  0.544091  1
  O  O35  1  0.848412  0.378247  0.447547  1
  O  O36  1  0.864380  0.868874  0.183677  1
  O  O37  1  0.851428  0.921062  0.903224  1
  O  O38  1  0.849249  0.320566  0.687255  1
  O  O39  1  0.595022  0.615636  0.836853  1
  O  O40  1  0.359151  0.972311  0.933930  1
  O  O41  1  0.891170  0.348530  0.955885  1
  O  O42  1  0.849249  0.955676  0.687255  1
