# generated using pymatgen
data_Tm11(Ni10C)6
_symmetry_space_group_name_H-M   'P 1'
_cell_length_a   10.73214166
_cell_length_b   10.73214165
_cell_length_c   10.73214166
_cell_angle_alpha   109.47122063
_cell_angle_beta   109.47122062
_cell_angle_gamma   109.47122062
_symmetry_Int_Tables_number   1
_chemical_formula_structural   Tm11(Ni10C)6
_chemical_formula_sum   'Tm11 Ni60 C6'
_cell_volume   951.56245634
_cell_formula_units_Z   1
loop_
 _symmetry_equiv_pos_site_id
 _symmetry_equiv_pos_as_xyz
  1  'x, y, z'
loop_
 _atom_site_type_symbol
 _atom_site_label
 _atom_site_symmetry_multiplicity
 _atom_site_fract_x
 _atom_site_fract_y
 _atom_site_fract_z
 _atom_site_occupancy
  C  C0  1  0.000000  0.707932  0.707932  1
  C  C1  1  0.292068  0.292068  0.000000  1
  C  C2  1  0.707932  0.707932  0.000000  1
  C  C3  1  0.707932  0.000000  0.707932  1
  C  C4  1  0.292068  0.000000  0.292068  1
  C  C5  1  0.000000  0.292068  0.292068  1
  Ni  Ni6  1  0.466982  0.318839  0.148143  1
  Ni  Ni7  1  0.681161  0.148143  0.829304  1
  Ni  Ni8  1  0.851857  0.170696  0.318839  1
  Ni  Ni9  1  0.533018  0.681161  0.851857  1
  Ni  Ni10  1  0.533018  0.851857  0.681161  1
  Ni  Ni11  1  0.681161  0.851857  0.533018  1
  Ni  Ni12  1  0.170696  0.851857  0.318839  1
  Ni  Ni13  1  0.851857  0.533018  0.681161  1
  Ni  Ni14  1  0.829304  0.148143  0.681161  1
  Ni  Ni15  1  0.148143  0.318839  0.466982  1
  Ni  Ni16  1  0.318839  0.466982  0.148143  1
  Ni  Ni17  1  0.681161  0.533018  0.851857  1
  Ni  Ni18  1  0.851857  0.318839  0.170696  1
  Ni  Ni19  1  0.681161  0.829304  0.148143  1
  Ni  Ni20  1  0.851857  0.681161  0.533018  1
  Ni  Ni21  1  0.318839  0.170696  0.851857  1
  Ni  Ni22  1  0.148143  0.681161  0.829304  1
  Ni  Ni23  1  0.829304  0.681161  0.148143  1
  Ni  Ni24  1  0.170696  0.318839  0.851857  1
  Ni  Ni25  1  0.318839  0.851857  0.170696  1
  Ni  Ni26  1  0.318839  0.148143  0.466982  1
  Ni  Ni27  1  0.148143  0.466982  0.318839  1
  Ni  Ni28  1  0.148143  0.829304  0.681161  1
  Ni  Ni29  1  0.466982  0.148143  0.318839  1
  Ni  Ni30  1  0.767110  0.000000  0.418962  1
  Ni  Ni31  1  0.000000  0.767110  0.418962  1
  Ni  Ni32  1  0.581038  0.581038  0.348149  1
  Ni  Ni33  1  0.232890  0.651851  0.232890  1
  Ni  Ni34  1  0.232890  0.581038  0.000000  1
  Ni  Ni35  1  0.651851  0.232890  0.232890  1
  Ni  Ni36  1  0.581038  0.232890  0.000000  1
  Ni  Ni37  1  0.232890  0.232890  0.651851  1
  Ni  Ni38  1  0.418962  0.418962  0.651851  1
  Ni  Ni39  1  0.767110  0.348149  0.767110  1
  Ni  Ni40  1  0.348149  0.767110  0.767110  1
  Ni  Ni41  1  0.000000  0.232890  0.581038  1
  Ni  Ni42  1  0.232890  0.000000  0.581038  1
  Ni  Ni43  1  0.651851  0.418962  0.418962  1
  Ni  Ni44  1  0.581038  0.000000  0.232890  1
  Ni  Ni45  1  0.000000  0.581038  0.232890  1
  Ni  Ni46  1  0.418962  0.651851  0.418962  1
  Ni  Ni47  1  0.418962  0.000000  0.767110  1
  Ni  Ni48  1  0.581038  0.348149  0.581038  1
  Ni  Ni49  1  0.348149  0.581038  0.581038  1
  Ni  Ni50  1  0.000000  0.418962  0.767110  1
  Ni  Ni51  1  0.418962  0.767110  0.000000  1
  Ni  Ni52  1  0.767110  0.418962  0.000000  1
  Ni  Ni53  1  0.767110  0.767110  0.348149  1
  Ni  Ni54  1  0.500000  0.250000  0.750000  1
  Ni  Ni55  1  0.250000  0.750000  0.500000  1
  Ni  Ni56  1  0.750000  0.250000  0.500000  1
  Ni  Ni57  1  0.250000  0.500000  0.750000  1
  Ni  Ni58  1  0.750000  0.500000  0.250000  1
  Ni  Ni59  1  0.500000  0.750000  0.250000  1
  Ni  Ni60  1  0.000000  0.856524  0.856524  1
  Ni  Ni61  1  0.143476  0.143476  0.000000  1
  Ni  Ni62  1  0.856524  0.856524  0.000000  1
  Ni  Ni63  1  0.856524  0.000000  0.856524  1
  Ni  Ni64  1  0.143476  0.000000  0.143476  1
  Ni  Ni65  1  0.000000  0.143476  0.143476  1
  Tm  Tm66  1  0.662337  0.662337  0.662337  1
  Tm  Tm67  1  0.662337  0.000000  0.000000  1
  Tm  Tm68  1  0.000000  0.000000  0.662337  1
  Tm  Tm69  1  0.000000  0.662337  0.000000  1
  Tm  Tm70  1  0.000000  0.000000  0.337663  1
  Tm  Tm71  1  0.000000  0.337663  0.000000  1
  Tm  Tm72  1  0.337663  0.000000  0.000000  1
  Tm  Tm73  1  0.337663  0.337663  0.337663  1
  Tm  Tm74  1  0.500000  0.500000  0.000000  1
  Tm  Tm75  1  0.500000  0.000000  0.500000  1
  Tm  Tm76  1  0.000000  0.500000  0.500000  1
