# generated using pymatgen
data_Tm4Mo4O11
_symmetry_space_group_name_H-M   'P 1'
_cell_length_a   5.68531974
_cell_length_b   10.69335967
_cell_length_c   15.87272805
_cell_angle_alpha   90.00000000
_cell_angle_beta   90.00000000
_cell_angle_gamma   90.00000000
_symmetry_Int_Tables_number   1
_chemical_formula_structural   Tm4Mo4O11
_chemical_formula_sum   'Tm16 Mo16 O44'
_cell_volume   964.98518141
_cell_formula_units_Z   4
loop_
 _symmetry_equiv_pos_site_id
 _symmetry_equiv_pos_as_xyz
  1  'x, y, z'
loop_
 _atom_site_type_symbol
 _atom_site_label
 _atom_site_symmetry_multiplicity
 _atom_site_fract_x
 _atom_site_fract_y
 _atom_site_fract_z
 _atom_site_occupancy
  Tm  Tm0  1  0.000000  0.614092  0.577159  1
  Tm  Tm1  1  0.000000  0.385908  0.422841  1
  Tm  Tm2  1  0.000000  0.114092  0.922841  1
  Tm  Tm3  1  0.000000  0.885908  0.077159  1
  Tm  Tm4  1  0.000000  0.403992  0.735914  1
  Tm  Tm5  1  0.000000  0.596008  0.264086  1
  Tm  Tm6  1  0.000000  0.903992  0.764086  1
  Tm  Tm7  1  0.000000  0.096008  0.235914  1
  Tm  Tm8  1  0.500000  0.424633  0.598928  1
  Tm  Tm9  1  0.500000  0.575367  0.401073  1
  Tm  Tm10  1  0.500000  0.924633  0.901072  1
  Tm  Tm11  1  0.500000  0.075367  0.098928  1
  Tm  Tm12  1  0.500000  0.184378  0.776930  1
  Tm  Tm13  1  0.500000  0.815622  0.223070  1
  Tm  Tm14  1  0.500000  0.684378  0.723070  1
  Tm  Tm15  1  0.500000  0.315622  0.276930  1
  Mo  Mo16  1  0.000000  0.915677  0.561183  1
  Mo  Mo17  1  0.000000  0.084323  0.438817  1
  Mo  Mo18  1  0.000000  0.415677  0.938817  1
  Mo  Mo19  1  0.000000  0.584323  0.061183  1
  Mo  Mo20  1  0.500000  0.903502  0.571535  1
  Mo  Mo21  1  0.500000  0.096498  0.428465  1
  Mo  Mo22  1  0.500000  0.403502  0.928465  1
  Mo  Mo23  1  0.500000  0.596498  0.071535  1
  Mo  Mo24  1  0.274521  0.863133  0.413868  1
  Mo  Mo25  1  0.274521  0.136867  0.586132  1
  Mo  Mo26  1  0.725479  0.363133  0.086132  1
  Mo  Mo27  1  0.725479  0.636867  0.913868  1
  Mo  Mo28  1  0.725479  0.136867  0.586132  1
  Mo  Mo29  1  0.725479  0.863133  0.413868  1
  Mo  Mo30  1  0.274521  0.636867  0.913868  1
  Mo  Mo31  1  0.274521  0.363133  0.086132  1
  O  O32  1  0.245751  0.000000  0.000000  1
  O  O33  1  0.754249  0.500000  0.500000  1
  O  O34  1  0.754249  0.000000  0.000000  1
  O  O35  1  0.245751  0.500000  0.500000  1
  O  O36  1  0.000000  0.234371  0.522371  1
  O  O37  1  0.000000  0.765629  0.477629  1
  O  O38  1  0.000000  0.734371  0.977629  1
  O  O39  1  0.000000  0.265629  0.022371  1
  O  O40  1  0.000000  0.047822  0.655883  1
  O  O41  1  0.000000  0.952178  0.344117  1
  O  O42  1  0.000000  0.547822  0.844117  1
  O  O43  1  0.000000  0.452178  0.155883  1
  O  O44  1  0.500000  0.249752  0.513523  1
  O  O45  1  0.500000  0.750248  0.486477  1
  O  O46  1  0.500000  0.749752  0.986477  1
  O  O47  1  0.500000  0.250248  0.013523  1
  O  O48  1  0.500000  0.041455  0.668013  1
  O  O49  1  0.500000  0.958545  0.331987  1
  O  O50  1  0.762485  0.309143  0.859149  1
  O  O51  1  0.500000  0.541455  0.831987  1
  O  O52  1  0.247551  0.959657  0.172125  1
  O  O53  1  0.247551  0.040343  0.827875  1
  O  O54  1  0.752449  0.459657  0.327875  1
  O  O55  1  0.752449  0.540343  0.672125  1
  O  O56  1  0.752449  0.040343  0.827875  1
  O  O57  1  0.752449  0.959657  0.172125  1
  O  O58  1  0.247551  0.540343  0.672125  1
  O  O59  1  0.247551  0.459657  0.327875  1
  O  O60  1  0.237515  0.690857  0.140851  1
  O  O61  1  0.237515  0.309143  0.859149  1
  O  O62  1  0.762485  0.190857  0.359149  1
  O  O63  1  0.762485  0.809143  0.640851  1
  O  O64  1  0.264652  0.221995  0.175450  1
  O  O65  1  0.264652  0.778005  0.824550  1
  O  O66  1  0.735348  0.721995  0.324550  1
  O  O67  1  0.735348  0.278005  0.675450  1
  O  O68  1  0.735348  0.778005  0.824550  1
  O  O69  1  0.735348  0.221995  0.175450  1
  O  O70  1  0.264652  0.278005  0.675450  1
  O  O71  1  0.264652  0.721995  0.324550  1
  O  O72  1  0.237515  0.190857  0.359149  1
  O  O73  1  0.237515  0.809143  0.640851  1
  O  O74  1  0.762485  0.690857  0.140851  1
  O  O75  1  0.500000  0.458545  0.168013  1
