# generated using pymatgen
data_TmNi2
_symmetry_space_group_name_H-M   'P 1'
_cell_length_a   10.05347909
_cell_length_b   10.05347909
_cell_length_c   10.05347909
_cell_angle_alpha   60.00000000
_cell_angle_beta   60.00000000
_cell_angle_gamma   60.00000000
_symmetry_Int_Tables_number   1
_chemical_formula_structural   TmNi2
_chemical_formula_sum   'Tm16 Ni32'
_cell_volume   718.51218782
_cell_formula_units_Z   16
loop_
 _symmetry_equiv_pos_site_id
 _symmetry_equiv_pos_as_xyz
  1  'x, y, z'
loop_
 _atom_site_type_symbol
 _atom_site_label
 _atom_site_symmetry_multiplicity
 _atom_site_fract_x
 _atom_site_fract_y
 _atom_site_fract_z
 _atom_site_occupancy
  Tm  Tm0  1  0.000000  0.000000  -0.000000  1
  Tm  Tm1  1  0.500000  0.500000  0.500000  1
  Tm  Tm2  1  0.874946  0.375018  0.375018  1
  Tm  Tm3  1  0.375018  0.874946  0.375018  1
  Tm  Tm4  1  0.375018  0.375018  0.874946  1
  Tm  Tm5  1  0.375018  0.375018  0.375018  1
  Tm  Tm6  1  0.374864  0.875045  0.875045  1
  Tm  Tm7  1  0.875045  0.374864  0.875045  1
  Tm  Tm8  1  0.875045  0.875045  0.374864  1
  Tm  Tm9  1  0.875045  0.875045  0.875045  1
  Tm  Tm10  1  0.500413  0.999587  0.999587  1
  Tm  Tm11  1  0.500413  0.999587  0.500413  1
  Tm  Tm12  1  0.500413  0.500413  0.999587  1
  Tm  Tm13  1  0.999587  0.500413  0.500413  1
  Tm  Tm14  1  0.999587  0.500413  0.999587  1
  Tm  Tm15  1  0.999587  0.999587  0.500413  1
  Ni  Ni16  1  0.936826  0.687725  0.687725  1
  Ni  Ni17  1  0.687725  0.936826  0.687725  1
  Ni  Ni18  1  0.687725  0.687725  0.936826  1
  Ni  Ni19  1  0.687725  0.687725  0.687725  1
  Ni  Ni20  1  0.438313  0.187229  0.187229  1
  Ni  Ni21  1  0.187229  0.438313  0.187229  1
  Ni  Ni22  1  0.187229  0.187229  0.438313  1
  Ni  Ni23  1  0.187229  0.187229  0.187229  1
  Ni  Ni24  1  0.937705  0.687318  0.187489  1
  Ni  Ni25  1  0.937705  0.187489  0.187489  1
  Ni  Ni26  1  0.937705  0.187489  0.687318  1
  Ni  Ni27  1  0.687318  0.937705  0.187489  1
  Ni  Ni28  1  0.187489  0.937705  0.687318  1
  Ni  Ni29  1  0.187489  0.937705  0.187489  1
  Ni  Ni30  1  0.187489  0.187489  0.937705  1
  Ni  Ni31  1  0.187489  0.687318  0.937705  1
  Ni  Ni32  1  0.687318  0.187489  0.937705  1
  Ni  Ni33  1  0.187489  0.187489  0.687318  1
  Ni  Ni34  1  0.687318  0.187489  0.187489  1
  Ni  Ni35  1  0.187489  0.687318  0.187489  1
  Ni  Ni36  1  0.437273  0.187733  0.687497  1
  Ni  Ni37  1  0.437273  0.687497  0.687497  1
  Ni  Ni38  1  0.437273  0.687497  0.187733  1
  Ni  Ni39  1  0.187733  0.437273  0.687497  1
  Ni  Ni40  1  0.687497  0.437273  0.187733  1
  Ni  Ni41  1  0.687497  0.437273  0.687497  1
  Ni  Ni42  1  0.687497  0.687497  0.437273  1
  Ni  Ni43  1  0.687497  0.187733  0.437273  1
  Ni  Ni44  1  0.187733  0.687497  0.437273  1
  Ni  Ni45  1  0.687497  0.687497  0.187733  1
  Ni  Ni46  1  0.187733  0.687497  0.687497  1
  Ni  Ni47  1  0.687497  0.187733  0.687497  1
