# generated using pymatgen
data_Tm2TiO5
_symmetry_space_group_name_H-M   'P 1'
_cell_length_a   7.38741382
_cell_length_b   7.39008443
_cell_length_c   21.18895633
_cell_angle_alpha   60.54707402
_cell_angle_beta   60.54562889
_cell_angle_gamma   62.37055167
_symmetry_Int_Tables_number   1
_chemical_formula_structural   Tm2TiO5
_chemical_formula_sum   'Tm16 Ti8 O40'
_cell_volume   838.66096217
_cell_formula_units_Z   8
loop_
 _symmetry_equiv_pos_site_id
 _symmetry_equiv_pos_as_xyz
  1  'x, y, z'
loop_
 _atom_site_type_symbol
 _atom_site_label
 _atom_site_symmetry_multiplicity
 _atom_site_fract_x
 _atom_site_fract_y
 _atom_site_fract_z
 _atom_site_occupancy
  O  O0  1  0.217924  0.606503  0.033223  1
  O  O1  1  0.872563  0.872587  0.289128  1
  O  O2  1  0.606615  0.218178  0.033160  1
  O  O3  1  0.200384  0.603942  0.184419  1
  O  O4  1  0.358525  0.358199  0.293424  1
  O  O5  1  0.334929  0.965402  0.115043  1
  O  O6  1  0.083501  0.083583  0.567287  1
  O  O7  1  0.182550  0.585418  0.381499  1
  O  O8  1  0.603905  0.200062  0.184438  1
  O  O9  1  0.605956  0.605589  0.053845  1
  O  O10  1  0.585480  0.182517  0.381576  1
  O  O11  1  0.324580  0.948348  0.282509  1
  O  O12  1  0.964647  0.335221  0.115237  1
  O  O13  1  0.183400  0.552662  0.541486  1
  O  O14  1  0.602667  0.602813  0.212881  1
  O  O15  1  0.095139  0.095098  0.875385  1
  O  O16  1  0.323028  0.924873  0.444619  1
  O  O17  1  0.355152  0.355037  0.674801  1
  O  O18  1  0.044132  0.697706  0.717117  1
  O  O19  1  0.948249  0.324761  0.282562  1
  O  O20  1  0.573230  0.573345  0.382897  1
  O  O21  1  0.869922  0.869917  0.123450  1
  O  O22  1  0.553385  0.182905  0.541516  1
  O  O23  1  0.037640  0.713196  0.872643  1
  O  O24  1  0.924358  0.323573  0.444642  1
  O  O25  1  0.698025  0.043893  0.717106  1
  O  O26  1  0.410338  0.808299  0.631832  1
  O  O27  1  0.412506  0.412561  0.785006  1
  O  O28  1  0.599233  0.599425  0.523864  1
  O  O29  1  0.394114  0.394412  0.922882  1
  O  O30  1  0.383272  0.834429  0.802149  1
  O  O31  1  0.808069  0.410602  0.631822  1
  O  O32  1  0.713269  0.037848  0.872568  1
  O  O33  1  0.857852  0.857775  0.466795  1
  O  O34  1  0.687992  0.688012  0.696242  1
  O  O35  1  0.331437  0.967829  0.964414  1
  O  O36  1  0.834377  0.383407  0.802149  1
  O  O37  1  0.644756  0.644647  0.893655  1
  O  O38  1  0.968540  0.330950  0.964408  1
  O  O39  1  0.092902  0.092900  0.717785  1
  Ti  Ti40  1  0.525589  0.525766  1.000065  1
  Ti  Ti41  1  0.490996  0.490557  0.173940  1
  Ti  Ti42  1  0.474529  0.474363  0.332673  1
  Ti  Ti43  1  1.004473  1.004184  0.829250  1
  Ti  Ti44  1  0.989277  0.988840  0.675243  1
  Ti  Ti45  1  0.488483  0.487949  0.492933  1
  Ti  Ti46  1  0.505741  0.505966  0.672243  1
  Ti  Ti47  1  0.537206  0.537255  0.813516  1
  Tm  Tm48  1  0.008562  0.008322  -0.002412  1
  Tm  Tm49  1  0.054596  0.509087  0.989183  1
  Tm  Tm50  1  0.508941  0.055325  0.989030  1
  Tm  Tm51  1  0.983991  0.515520  0.163372  1
  Tm  Tm52  1  0.996099  0.996362  0.162893  1
  Tm  Tm53  1  1.004418  0.500553  0.325298  1
  Tm  Tm54  1  0.980436  0.980654  0.341686  1
  Tm  Tm55  1  0.955311  0.484652  0.506124  1
  Tm  Tm56  1  0.515396  0.984022  0.163324  1
  Tm  Tm57  1  0.008711  0.471959  0.674016  1
  Tm  Tm58  1  0.988592  0.989333  0.504603  1
  Tm  Tm59  1  0.500394  1.004120  0.325333  1
  Tm  Tm60  1  1.000129  0.482920  0.841378  1
  Tm  Tm61  1  0.484418  0.955255  0.506129  1
  Tm  Tm62  1  0.483120  0.999929  0.841360  1
  Tm  Tm63  1  0.472049  0.008686  0.674023  1
