# generated using pymatgen
data_Tm2WO6
_symmetry_space_group_name_H-M   'P 1'
_cell_length_a   16.03127713
_cell_length_b   10.49748342
_cell_length_c   5.54665132
_cell_angle_alpha   90.00000000
_cell_angle_beta   90.00000000
_cell_angle_gamma   90.00000000
_symmetry_Int_Tables_number   1
_chemical_formula_structural   Tm2WO6
_chemical_formula_sum   'Tm16 W8 O48'
_cell_volume   933.43522272
_cell_formula_units_Z   8
loop_
 _symmetry_equiv_pos_site_id
 _symmetry_equiv_pos_as_xyz
  1  'x, y, z'
loop_
 _atom_site_type_symbol
 _atom_site_label
 _atom_site_symmetry_multiplicity
 _atom_site_fract_x
 _atom_site_fract_y
 _atom_site_fract_z
 _atom_site_occupancy
  Tm  Tm0  1  0.061795  0.356771  0.101122  1
  Tm  Tm1  1  0.061795  0.143229  0.601122  1
  Tm  Tm2  1  0.228726  0.146534  0.046208  1
  Tm  Tm3  1  0.228726  0.353466  0.546208  1
  Tm  Tm4  1  0.271274  0.646534  0.046208  1
  Tm  Tm5  1  0.271274  0.853466  0.546208  1
  Tm  Tm6  1  0.438205  0.643229  0.601122  1
  Tm  Tm7  1  0.438205  0.856771  0.101122  1
  Tm  Tm8  1  0.561795  0.143229  0.898878  1
  Tm  Tm9  1  0.561795  0.356771  0.398878  1
  Tm  Tm10  1  0.728726  0.146534  0.453792  1
  Tm  Tm11  1  0.728726  0.353466  0.953792  1
  Tm  Tm12  1  0.771274  0.646534  0.453792  1
  Tm  Tm13  1  0.771274  0.853466  0.953792  1
  Tm  Tm14  1  0.938205  0.643229  0.898878  1
  Tm  Tm15  1  0.938205  0.856771  0.398878  1
  W  W16  1  0.119870  0.619466  0.612436  1
  W  W17  1  0.119870  0.880534  0.112436  1
  W  W18  1  0.380130  0.119466  0.612436  1
  W  W19  1  0.380130  0.380534  0.112436  1
  W  W20  1  0.619870  0.619466  0.887564  1
  W  W21  1  0.619870  0.880534  0.387564  1
  W  W22  1  0.880130  0.119466  0.887564  1
  W  W23  1  0.880130  0.380534  0.387564  1
  O  O24  1  0.021320  0.783220  0.081231  1
  O  O25  1  0.021320  0.716780  0.581231  1
  O  O26  1  0.070226  0.539577  0.880642  1
  O  O27  1  0.070226  0.960423  0.380642  1
  O  O28  1  0.106850  0.014303  0.902652  1
  O  O29  1  0.106850  0.485697  0.402652  1
  O  O30  1  0.146190  0.228507  0.322147  1
  O  O31  1  0.146190  0.271493  0.822147  1
  O  O32  1  0.173100  0.730719  0.338128  1
  O  O33  1  0.173100  0.769281  0.838128  1
  O  O34  1  0.231368  0.945874  0.189343  1
  O  O35  1  0.231368  0.554126  0.689343  1
  O  O36  1  0.268632  0.054126  0.689343  1
  O  O37  1  0.268632  0.445874  0.189343  1
  O  O38  1  0.326900  0.230719  0.338128  1
  O  O39  1  0.326900  0.269281  0.838128  1
  O  O40  1  0.353810  0.728507  0.322147  1
  O  O41  1  0.353810  0.771493  0.822147  1
  O  O42  1  0.393150  0.514303  0.902652  1
  O  O43  1  0.393150  0.985697  0.402652  1
  O  O44  1  0.429774  0.039577  0.880642  1
  O  O45  1  0.429774  0.460423  0.380642  1
  O  O46  1  0.478680  0.216781  0.581231  1
  O  O47  1  0.478680  0.283219  0.081231  1
  O  O48  1  0.521320  0.716780  0.918769  1
  O  O49  1  0.521320  0.783220  0.418769  1
  O  O50  1  0.570226  0.539577  0.619358  1
  O  O51  1  0.570226  0.960423  0.119358  1
  O  O52  1  0.606850  0.014303  0.597348  1
  O  O53  1  0.606850  0.485697  0.097348  1
  O  O54  1  0.646190  0.228507  0.177853  1
  O  O55  1  0.646190  0.271493  0.677853  1
  O  O56  1  0.673100  0.730719  0.161872  1
  O  O57  1  0.673100  0.769281  0.661872  1
  O  O58  1  0.731368  0.554126  0.810657  1
  O  O59  1  0.731368  0.945874  0.310657  1
  O  O60  1  0.768632  0.054126  0.810657  1
  O  O61  1  0.768632  0.445874  0.310657  1
  O  O62  1  0.826900  0.230719  0.161872  1
  O  O63  1  0.826900  0.269281  0.661872  1
  O  O64  1  0.853810  0.728507  0.177853  1
  O  O65  1  0.853810  0.771493  0.677853  1
  O  O66  1  0.893150  0.514303  0.597348  1
  O  O67  1  0.893150  0.985697  0.097348  1
  O  O68  1  0.929774  0.039577  0.619358  1
  O  O69  1  0.929774  0.460423  0.119358  1
  O  O70  1  0.978680  0.216781  0.918769  1
  O  O71  1  0.978680  0.283219  0.418769  1
