# generated using pymatgen
data_TmMn12
_symmetry_space_group_name_H-M   'P 1'
_cell_length_a   6.30536708
_cell_length_b   6.30536708
_cell_length_c   6.30536708
_cell_angle_alpha   97.73025968
_cell_angle_beta   97.73025968
_cell_angle_gamma   136.96869192
_symmetry_Int_Tables_number   1
_chemical_formula_structural   TmMn12
_chemical_formula_sum   'Tm1 Mn12'
_cell_volume   159.14754527
_cell_formula_units_Z   1
loop_
 _symmetry_equiv_pos_site_id
 _symmetry_equiv_pos_as_xyz
  1  'x, y, z'
loop_
 _atom_site_type_symbol
 _atom_site_label
 _atom_site_symmetry_multiplicity
 _atom_site_fract_x
 _atom_site_fract_y
 _atom_site_fract_z
 _atom_site_occupancy
  Tm  Tm0  1  0.000000  0.000000  0.000000  1
  Mn  Mn1  1  0.500001  0.500001  0.500002  1
  Mn  Mn2  1  0.000001  0.000001  0.500002  1
  Mn  Mn3  1  0.500000  0.999999  0.000000  1
  Mn  Mn4  1  0.999999  0.500000  0.000000  1
  Mn  Mn5  1  0.000000  0.361573  0.361573  1
  Mn  Mn6  1  0.000000  0.638427  0.638427  1
  Mn  Mn7  1  0.638427  0.000000  0.638427  1
  Mn  Mn8  1  0.361573  0.000000  0.361573  1
  Mn  Mn9  1  0.500000  0.273880  0.773880  1
  Mn  Mn10  1  0.500000  0.726119  0.226119  1
  Mn  Mn11  1  0.726119  0.500000  0.226119  1
  Mn  Mn12  1  0.273880  0.500000  0.773880  1
