# generated using pymatgen
data_TmMn4(CuO4)3
_symmetry_space_group_name_H-M   'P 1'
_cell_length_a   6.40317880
_cell_length_b   6.40315325
_cell_length_c   6.40319081
_cell_angle_alpha   109.45556532
_cell_angle_beta   109.47592857
_cell_angle_gamma   109.48298610
_symmetry_Int_Tables_number   1
_chemical_formula_structural   TmMn4(CuO4)3
_chemical_formula_sum   'Tm1 Mn4 Cu3 O12'
_cell_volume   202.09691012
_cell_formula_units_Z   1
loop_
 _symmetry_equiv_pos_site_id
 _symmetry_equiv_pos_as_xyz
  1  'x, y, z'
loop_
 _atom_site_type_symbol
 _atom_site_label
 _atom_site_symmetry_multiplicity
 _atom_site_fract_x
 _atom_site_fract_y
 _atom_site_fract_z
 _atom_site_occupancy
  Tm  Tm0  1  1.000001  0.000001  0.000004  1
  Mn  Mn1  1  1.000006  0.999992  0.499969  1
  Mn  Mn2  1  0.500016  1.000042  0.000046  1
  Mn  Mn3  1  0.500001  0.499959  0.500011  1
  Mn  Mn4  1  -0.000002  0.500027  0.000016  1
  Cu  Cu5  1  0.499897  -0.000049  0.499937  1
  Cu  Cu6  1  0.500057  0.500029  0.999981  1
  Cu  Cu7  1  0.000021  0.500004  0.500011  1
  O  O8  1  0.169212  0.300539  0.469753  1
  O  O9  1  0.868939  0.169325  0.699615  1
  O  O10  1  0.830788  0.300538  0.131330  1
  O  O11  1  0.530288  0.830674  0.699615  1
  O  O12  1  0.830789  0.699460  0.530251  1
  O  O13  1  0.169212  0.699460  0.868674  1
  O  O14  1  0.131064  0.830675  0.300392  1
  O  O15  1  0.469714  0.169326  0.300390  1
  O  O16  1  0.699533  0.530211  0.830679  1
  O  O17  1  0.699533  0.868853  0.169324  1
  O  O18  1  0.300466  0.469788  0.169323  1
  O  O19  1  0.300466  0.131145  0.830679  1
