# generated using pymatgen
data_TmTa3
_symmetry_space_group_name_H-M   'P 1'
_cell_length_a   4.84327445
_cell_length_b   4.84327098
_cell_length_c   4.84327763
_cell_angle_alpha   60.00015609
_cell_angle_beta   59.99996049
_cell_angle_gamma   60.00008606
_symmetry_Int_Tables_number   1
_chemical_formula_structural   TmTa3
_chemical_formula_sum   'Tm1 Ta3'
_cell_volume   80.33464520
_cell_formula_units_Z   1
loop_
 _symmetry_equiv_pos_site_id
 _symmetry_equiv_pos_as_xyz
  1  'x, y, z'
loop_
 _atom_site_type_symbol
 _atom_site_label
 _atom_site_symmetry_multiplicity
 _atom_site_fract_x
 _atom_site_fract_y
 _atom_site_fract_z
 _atom_site_occupancy
  Tm  Tm0  1  0.749999  0.749999  0.750000  1
  Ta  Ta1  1  1.000000  1.000000  1.000000  1
  Ta  Ta2  1  0.500001  0.500000  0.500001  1
  Ta  Ta3  1  0.250000  0.250000  0.250000  1
