# generated using pymatgen
data_Tm10Ti6O27
_symmetry_space_group_name_H-M   'P 1'
_cell_length_a   7.24676460
_cell_length_b   7.24676426
_cell_length_c   28.81556026
_cell_angle_alpha   60.30495249
_cell_angle_beta   60.30495403
_cell_angle_gamma   59.97163534
_symmetry_Int_Tables_number   1
_chemical_formula_structural   Tm10Ti6O27
_chemical_formula_sum   'Tm20 Ti12 O54'
_cell_volume   1074.71384835
_cell_formula_units_Z   2
loop_
 _symmetry_equiv_pos_site_id
 _symmetry_equiv_pos_as_xyz
  1  'x, y, z'
loop_
 _atom_site_type_symbol
 _atom_site_label
 _atom_site_symmetry_multiplicity
 _atom_site_fract_x
 _atom_site_fract_y
 _atom_site_fract_z
 _atom_site_occupancy
  Tm  Tm0  1  0.990926  0.990926  0.997435  1
  Tm  Tm1  1  0.981289  0.981289  0.254984  1
  Tm  Tm2  1  0.506393  0.993860  0.124266  1
  Tm  Tm3  1  0.520644  0.520644  0.112779  1
  Tm  Tm4  1  0.486078  0.486078  0.244745  1
  Tm  Tm5  1  0.500406  0.973242  0.376542  1
  Tm  Tm6  1  0.977976  0.977976  0.134325  1
  Tm  Tm7  1  0.993860  0.506393  0.124266  1
  Tm  Tm8  1  0.474633  0.474633  0.392736  1
  Tm  Tm9  1  0.506784  0.506784  0.504824  1
  Tm  Tm10  1  0.970271  0.970271  0.389499  1
  Tm  Tm11  1  0.483925  0.991311  0.630199  1
  Tm  Tm12  1  0.973242  0.500406  0.376542  1
  Tm  Tm13  1  0.482661  0.482661  0.634775  1
  Tm  Tm14  1  0.490776  0.007408  0.867035  1
  Tm  Tm15  1  0.518068  0.518068  0.749984  1
  Tm  Tm16  1  0.493365  0.493365  0.880133  1
  Tm  Tm17  1  0.991311  0.483925  0.630199  1
  Tm  Tm18  1  0.531344  0.531344  0.990717  1
  Tm  Tm19  1  0.007408  0.490776  0.867035  1
  Ti  Ti20  1  0.009267  0.481542  -0.000194  1
  Ti  Ti21  1  0.481542  0.009267  -0.000194  1
  Ti  Ti22  1  0.989550  0.489957  0.254877  1
  Ti  Ti23  1  0.489957  0.989550  0.254877  1
  Ti  Ti24  1  0.002080  0.002080  0.499599  1
  Ti  Ti25  1  0.998948  0.486757  0.502276  1
  Ti  Ti26  1  0.486757  0.998948  0.502276  1
  Ti  Ti27  1  0.991977  0.991977  0.751310  1
  Ti  Ti28  1  0.998309  0.496109  0.749279  1
  Ti  Ti29  1  0.496109  0.998309  0.749279  1
  Ti  Ti30  1  0.995098  0.995098  0.624350  1
  Ti  Ti31  1  0.003118  0.003118  0.876241  1
  O  O32  1  0.123827  0.123827  0.161357  1
  O  O33  1  0.162067  0.607178  0.029529  1
  O  O34  1  0.157364  0.591665  0.155212  1
  O  O35  1  0.607178  0.162067  0.029529  1
  O  O36  1  0.123771  0.123771  0.410046  1
  O  O37  1  0.341600  0.919597  0.077355  1
  O  O38  1  0.284351  0.284351  0.245440  1
  O  O39  1  0.127952  0.600586  0.285570  1
  O  O40  1  0.671575  0.671575  0.017548  1
  O  O41  1  0.591665  0.157364  0.155212  1
  O  O42  1  0.600586  0.127952  0.285570  1
  O  O43  1  0.919597  0.341600  0.077355  1
  O  O44  1  0.613180  0.613180  0.154782  1
  O  O45  1  0.391509  0.844807  0.238392  1
  O  O46  1  0.111774  0.582487  0.415813  1
  O  O47  1  0.074729  0.074729  0.668687  1
  O  O48  1  0.369738  0.850260  0.335774  1
  O  O49  1  0.325625  0.325625  0.490556  1
  O  O50  1  0.065942  0.707899  0.500931  1
  O  O51  1  0.827943  0.827943  0.232066  1
  O  O52  1  0.844807  0.391509  0.238392  1
  O  O53  1  0.883347  0.883347  0.090108  1
  O  O54  1  0.582487  0.111774  0.415813  1
  O  O55  1  0.086588  0.672640  0.665545  1
  O  O56  1  0.850260  0.369738  0.335774  1
  O  O57  1  0.609233  0.609233  0.414862  1
  O  O58  1  0.367347  0.367347  0.597486  1
  O  O59  1  0.310792  0.879216  0.495392  1
  O  O60  1  0.707899  0.065942  0.500931  1
  O  O61  1  0.124005  0.124005  0.898894  1
  O  O62  1  0.343172  0.913160  0.585075  1
  O  O63  1  0.326063  0.326063  0.728836  1
  O  O64  1  0.085177  0.671384  0.768793  1
  O  O65  1  0.693366  0.693366  0.504913  1
  O  O66  1  0.879216  0.310792  0.495392  1
  O  O67  1  0.878707  0.878707  0.346196  1
  O  O68  1  0.672640  0.086588  0.665545  1
  O  O69  1  0.913160  0.343172  0.585075  1
  O  O70  1  0.387247  0.387247  0.841483  1
  O  O71  1  0.619600  0.619600  0.658637  1
  O  O72  1  0.334906  0.921199  0.726943  1
  O  O73  1  0.091738  0.720714  0.927366  1
  O  O74  1  0.671384  0.085177  0.768793  1
  O  O75  1  0.353476  0.898879  0.829148  1
  O  O76  1  0.325190  0.325190  0.969477  1
  O  O77  1  0.684992  0.684992  0.759045  1
  O  O78  1  0.921199  0.334906  0.726943  1
  O  O79  1  0.901835  0.901835  0.585419  1
  O  O80  1  0.720714  0.091738  0.927366  1
  O  O81  1  0.898879  0.353476  0.829148  1
  O  O82  1  0.635516  0.635516  0.900356  1
  O  O83  1  0.367605  0.935665  0.966452  1
  O  O84  1  0.935665  0.367605  0.966452  1
  O  O85  1  0.925744  0.925744  0.832733  1
