# generated using pymatgen
data_TmAu3
_symmetry_space_group_name_H-M   'P 1'
_cell_length_a   5.13571992
_cell_length_b   5.01900689
_cell_length_c   6.13586032
_cell_angle_alpha   90.00000000
_cell_angle_beta   90.00000000
_cell_angle_gamma   90.00000000
_symmetry_Int_Tables_number   1
_chemical_formula_structural   TmAu3
_chemical_formula_sum   'Tm2 Au6'
_cell_volume   158.15924662
_cell_formula_units_Z   2
loop_
 _symmetry_equiv_pos_site_id
 _symmetry_equiv_pos_as_xyz
  1  'x, y, z'
loop_
 _atom_site_type_symbol
 _atom_site_label
 _atom_site_symmetry_multiplicity
 _atom_site_fract_x
 _atom_site_fract_y
 _atom_site_fract_z
 _atom_site_occupancy
  Tm  Tm0  1  0.345665  0.750000  0.750000  1
  Tm  Tm1  1  0.654335  0.250000  0.250000  1
  Au  Au2  1  0.657422  0.250000  0.750000  1
  Au  Au3  1  0.156934  0.250000  0.504700  1
  Au  Au4  1  0.156934  0.250000  0.995300  1
  Au  Au5  1  0.843066  0.750000  0.004700  1
  Au  Au6  1  0.342578  0.750000  0.250000  1
  Au  Au7  1  0.843066  0.750000  0.495300  1
