# generated using pymatgen
data_Tm(CuO2)2
_symmetry_space_group_name_H-M   'P 1'
_cell_length_a   5.63902351
_cell_length_b   6.19575198
_cell_length_c   6.19575198
_cell_angle_alpha   100.95145194
_cell_angle_beta   63.53322740
_cell_angle_gamma   63.53322740
_symmetry_Int_Tables_number   1
_chemical_formula_structural   Tm(CuO2)2
_chemical_formula_sum   'Tm2 Cu4 O8'
_cell_volume   151.70924360
_cell_formula_units_Z   2
loop_
 _symmetry_equiv_pos_site_id
 _symmetry_equiv_pos_as_xyz
  1  'x, y, z'
loop_
 _atom_site_type_symbol
 _atom_site_label
 _atom_site_symmetry_multiplicity
 _atom_site_fract_x
 _atom_site_fract_y
 _atom_site_fract_z
 _atom_site_occupancy
  Tm  Tm0  1  0.750000  0.124895  0.375105  1
  Tm  Tm1  1  0.250000  0.875105  0.624895  1
  Cu  Cu2  1  0.500000  -0.000000  0.000000  1
  Cu  Cu3  1  0.500000  0.500000  0.000000  1
  Cu  Cu4  1  -0.000000  0.500000  0.000000  1
  Cu  Cu5  1  -0.000000  0.500000  0.500000  1
  O  O6  1  0.699040  0.169851  0.026737  1
  O  O7  1  0.800960  0.473263  0.330149  1
  O  O8  1  0.900592  0.277968  0.632859  1
  O  O9  1  0.400592  0.132859  0.777968  1
  O  O10  1  0.599408  0.867141  0.222032  1
  O  O11  1  0.099408  0.722032  0.367141  1
  O  O12  1  0.199040  0.526737  0.669851  1
  O  O13  1  0.300960  0.830149  0.973263  1
