# generated using pymatgen
data_TmNbO4
_symmetry_space_group_name_H-M   'P 1'
_cell_length_a   5.10467826
_cell_length_b   5.28195654
_cell_length_c   6.52469591
_cell_angle_alpha   112.03294899
_cell_angle_beta   111.13247994
_cell_angle_gamma   94.34355969
_symmetry_Int_Tables_number   1
_chemical_formula_structural   TmNbO4
_chemical_formula_sum   'Tm2 Nb2 O8'
_cell_volume   147.51033101
_cell_formula_units_Z   2
loop_
 _symmetry_equiv_pos_site_id
 _symmetry_equiv_pos_as_xyz
  1  'x, y, z'
loop_
 _atom_site_type_symbol
 _atom_site_label
 _atom_site_symmetry_multiplicity
 _atom_site_fract_x
 _atom_site_fract_y
 _atom_site_fract_z
 _atom_site_occupancy
  Tm  Tm0  1  0.121334  0.871334  0.242667  1
  Tm  Tm1  1  0.878666  0.128666  0.757333  1
  Nb  Nb2  1  0.357346  0.607346  0.714692  1
  Nb  Nb3  1  0.642654  0.392654  0.285308  1
  O  O4  1  0.285426  0.126041  0.076800  1
  O  O5  1  0.714574  0.873959  0.923200  1
  O  O6  1  0.791374  0.450759  0.076800  1
  O  O7  1  0.507231  0.719257  0.436139  1
  O  O8  1  0.492769  0.280743  0.563861  1
  O  O9  1  0.208626  0.549241  0.923200  1
  O  O10  1  0.071092  0.783118  0.563861  1
  O  O11  1  0.928908  0.216882  0.436139  1
