# generated using pymatgen
data_TmTaO4
_symmetry_space_group_name_H-M   'P 1'
_cell_length_a   5.10296435
_cell_length_b   5.28599491
_cell_length_c   5.48378724
_cell_angle_alpha   90.00000000
_cell_angle_beta   90.00000000
_cell_angle_gamma   96.18015453
_symmetry_Int_Tables_number   1
_chemical_formula_structural   TmTaO4
_chemical_formula_sum   'Tm2 Ta2 O8'
_cell_volume   147.06134195
_cell_formula_units_Z   2
loop_
 _symmetry_equiv_pos_site_id
 _symmetry_equiv_pos_as_xyz
  1  'x, y, z'
loop_
 _atom_site_type_symbol
 _atom_site_label
 _atom_site_symmetry_multiplicity
 _atom_site_fract_x
 _atom_site_fract_y
 _atom_site_fract_z
 _atom_site_occupancy
  O  O0  1  0.732950  0.000608  0.567113  1
  O  O1  1  0.267050  0.499392  0.567113  1
  O  O2  1  0.267050  0.999392  0.432887  1
  O  O3  1  0.732950  0.500608  0.432887  1
  O  O4  1  0.247003  0.596124  0.084218  1
  O  O5  1  0.752997  0.903876  0.084218  1
  O  O6  1  0.752997  0.403876  0.915782  1
  O  O7  1  0.247003  0.096124  0.915782  1
  Tm  Tm8  1  0.000000  0.750000  0.769336  1
  Tm  Tm9  1  0.000000  0.250000  0.230664  1
  Ta  Ta10  1  0.500000  0.250000  0.695358  1
  Ta  Ta11  1  0.500000  0.750000  0.304642  1
