# generated using pymatgen
data_TmTaO4
_symmetry_space_group_name_H-M   'P 1'
_cell_length_a   3.86360164
_cell_length_b   7.91822892
_cell_length_c   5.39936491
_cell_angle_alpha   90.00000000
_cell_angle_beta   90.00000000
_cell_angle_gamma   104.12090504
_symmetry_Int_Tables_number   1
_chemical_formula_structural   TmTaO4
_chemical_formula_sum   'Tm2 Ta2 O8'
_cell_volume   160.19083701
_cell_formula_units_Z   2
loop_
 _symmetry_equiv_pos_site_id
 _symmetry_equiv_pos_as_xyz
  1  'x, y, z'
loop_
 _atom_site_type_symbol
 _atom_site_label
 _atom_site_symmetry_multiplicity
 _atom_site_fract_x
 _atom_site_fract_y
 _atom_site_fract_z
 _atom_site_occupancy
  Tm  Tm0  1  0.198233  0.396466  0.120449  1
  Tm  Tm1  1  0.801767  0.603534  0.620449  1
  Ta  Ta2  1  0.414307  0.828616  0.191738  1
  Ta  Ta3  1  0.585693  0.171384  0.691738  1
  O  O4  1  0.100867  0.201735  0.751322  1
  O  O5  1  0.297804  0.595610  0.413007  1
  O  O6  1  0.331542  0.663083  0.912802  1
  O  O7  1  0.477729  0.955459  0.525881  1
  O  O8  1  0.522271  0.044541  0.025881  1
  O  O9  1  0.668458  0.336917  0.412802  1
  O  O10  1  0.702196  0.404390  0.913007  1
  O  O11  1  0.899133  0.798265  0.251322  1
