# generated using pymatgen
data_Tm2Zr8O19
_symmetry_space_group_name_H-M   'P 1'
_cell_length_a   3.63333949
_cell_length_b   36.29708566
_cell_length_c   34.62178579
_cell_angle_alpha   5.21271673
_cell_angle_beta   58.35069196
_cell_angle_gamma   59.96690311
_symmetry_Int_Tables_number   1
_chemical_formula_structural   Tm2Zr8O19
_chemical_formula_sum   'Tm2 Zr8 O19'
_cell_volume   338.48044886
_cell_formula_units_Z   1
loop_
 _symmetry_equiv_pos_site_id
 _symmetry_equiv_pos_as_xyz
  1  'x, y, z'
loop_
 _atom_site_type_symbol
 _atom_site_label
 _atom_site_symmetry_multiplicity
 _atom_site_fract_x
 _atom_site_fract_y
 _atom_site_fract_z
 _atom_site_occupancy
  Tm  Tm0  1  0.029112  0.823290  0.970888  1
  Tm  Tm1  1  0.970888  0.876710  0.029112  1
  Zr  Zr2  1  0.993009  0.994407  0.006991  1
  Zr  Zr3  1  0.994490  0.095592  0.005510  1
  Zr  Zr4  1  0.996835  0.197468  0.003165  1
  Zr  Zr5  1  0.999174  0.299339  0.000826  1
  Zr  Zr6  1  0.000826  0.400661  0.999174  1
  Zr  Zr7  1  0.003165  0.502532  0.996835  1
  Zr  Zr8  1  0.005510  0.604408  0.994490  1
  Zr  Zr9  1  0.006991  0.705593  0.993009  1
  O  O10  1  0.259692  0.007753  0.240308  1
  O  O11  1  0.250000  0.100000  0.250000  1
  O  O12  1  0.240308  0.192247  0.259692  1
  O  O13  1  0.273257  0.318606  0.226743  1
  O  O14  1  0.229645  0.383716  0.270355  1
  O  O15  1  0.287553  0.530042  0.212447  1
  O  O16  1  0.729384  0.983507  0.770616  1
  O  O17  1  0.750000  0.100000  0.750000  1
  O  O18  1  0.212447  0.669958  0.287553  1
  O  O19  1  0.270355  0.816284  0.229645  1
  O  O20  1  0.770616  0.216493  0.729384  1
  O  O21  1  0.226743  0.881394  0.273257  1
  O  O22  1  0.718186  0.274549  0.781814  1
  O  O23  1  0.766264  0.413011  0.733736  1
  O  O24  1  0.737985  0.490388  0.762015  1
  O  O25  1  0.750000  0.600000  0.750000  1
  O  O26  1  0.762015  0.709612  0.737985  1
  O  O27  1  0.733736  0.786989  0.766264  1
  O  O28  1  0.781814  0.925451  0.718186  1
