# generated using pymatgen
data_TmB4Os
_symmetry_space_group_name_H-M   'P 1'
_cell_length_a   5.93438716
_cell_length_b   11.47632078
_cell_length_c   3.54697556
_cell_angle_alpha   89.99980468
_cell_angle_beta   90.00018531
_cell_angle_gamma   90.00031872
_symmetry_Int_Tables_number   1
_chemical_formula_structural   TmB4Os
_chemical_formula_sum   'Tm4 B16 Os4'
_cell_volume   241.56652464
_cell_formula_units_Z   4
loop_
 _symmetry_equiv_pos_site_id
 _symmetry_equiv_pos_as_xyz
  1  'x, y, z'
loop_
 _atom_site_type_symbol
 _atom_site_label
 _atom_site_symmetry_multiplicity
 _atom_site_fract_x
 _atom_site_fract_y
 _atom_site_fract_z
 _atom_site_occupancy
  Tm  Tm0  1  0.128712  0.149953  0.000000  1
  Tm  Tm1  1  0.871289  0.850046  -0.000000  1
  Tm  Tm2  1  0.628712  0.350043  -0.000002  1
  Tm  Tm3  1  0.371286  0.649955  0.000003  1
  B  B4  1  0.475671  0.192175  0.500000  1
  B  B5  1  0.524327  0.807825  0.500001  1
  B  B6  1  0.975671  0.307823  0.499999  1
  B  B7  1  0.024329  0.692176  0.500002  1
  B  B8  1  0.290755  0.313842  0.500001  1
  B  B9  1  0.709246  0.686158  0.500000  1
  B  B10  1  0.790753  0.186156  0.499997  1
  B  B11  1  0.209246  0.813842  0.500000  1
  B  B12  1  0.364653  0.470051  0.499999  1
  B  B13  1  0.635347  0.529948  0.499998  1
  B  B14  1  0.864649  0.029948  0.499999  1
  B  B15  1  0.135350  0.970051  0.500001  1
  B  B16  1  0.386936  0.047186  0.500000  1
  B  B17  1  0.613062  0.952814  0.500002  1
  B  B18  1  0.886936  0.452814  0.499999  1
  B  B19  1  0.113064  0.547187  0.500000  1
  Os  Os20  1  0.142109  0.406059  0.999995  1
  Os  Os21  1  0.857893  0.593941  0.000003  1
  Os  Os22  1  0.642111  0.093939  0.000003  1
  Os  Os23  1  0.357892  0.906063  1.000000  1
