# generated using pymatgen
data_TmB4Rh
_symmetry_space_group_name_H-M   'P 1'
_cell_length_a   3.54376183
_cell_length_b   5.93107158
_cell_length_c   11.50666900
_cell_angle_alpha   90.00000000
_cell_angle_beta   90.00000000
_cell_angle_gamma   90.00000000
_symmetry_Int_Tables_number   1
_chemical_formula_structural   TmB4Rh
_chemical_formula_sum   'Tm4 B16 Rh4'
_cell_volume   241.85067945
_cell_formula_units_Z   4
loop_
 _symmetry_equiv_pos_site_id
 _symmetry_equiv_pos_as_xyz
  1  'x, y, z'
loop_
 _atom_site_type_symbol
 _atom_site_label
 _atom_site_symmetry_multiplicity
 _atom_site_fract_x
 _atom_site_fract_y
 _atom_site_fract_z
 _atom_site_occupancy
  B  B0  1  0.500000  0.791550  0.687371  1
  B  B1  1  0.500000  0.208450  0.312629  1
  B  B2  1  0.500000  0.291550  0.812629  1
  B  B3  1  0.500000  0.708450  0.187371  1
  B  B4  1  0.500000  0.864529  0.530375  1
  B  B5  1  0.500000  0.135471  0.469625  1
  B  B6  1  0.500000  0.364529  0.969625  1
  B  B7  1  0.500000  0.635471  0.030375  1
  B  B8  1  0.500000  0.021497  0.193259  1
  B  B9  1  0.500000  0.978503  0.806741  1
  B  B10  1  0.500000  0.521497  0.306741  1
  B  B11  1  0.500000  0.478503  0.693259  1
  B  B12  1  0.500000  0.112982  0.047510  1
  B  B13  1  0.500000  0.887018  0.952490  1
  B  B14  1  0.500000  0.612982  0.452490  1
  B  B15  1  0.500000  0.387018  0.547510  1
  Rh  Rh16  1  0.000000  0.643199  0.594852  1
  Rh  Rh17  1  0.000000  0.356801  0.405148  1
  Rh  Rh18  1  0.000000  0.143199  0.905148  1
  Rh  Rh19  1  0.000000  0.856801  0.094852  1
  Tm  Tm20  1  0.000000  0.131750  0.648871  1
  Tm  Tm21  1  0.000000  0.868250  0.351129  1
  Tm  Tm22  1  0.000000  0.631750  0.851129  1
  Tm  Tm23  1  0.000000  0.368250  0.148871  1
