# generated using pymatgen
data_TmB4Ru
_symmetry_space_group_name_H-M   'P 1'
_cell_length_a   5.92315362
_cell_length_b   11.45350148
_cell_length_c   3.52997551
_cell_angle_alpha   90.00033264
_cell_angle_beta   89.99991838
_cell_angle_gamma   89.99815066
_symmetry_Int_Tables_number   1
_chemical_formula_structural   TmB4Ru
_chemical_formula_sum   'Tm4 B16 Ru4'
_cell_volume   239.47653461
_cell_formula_units_Z   4
loop_
 _symmetry_equiv_pos_site_id
 _symmetry_equiv_pos_as_xyz
  1  'x, y, z'
loop_
 _atom_site_type_symbol
 _atom_site_label
 _atom_site_symmetry_multiplicity
 _atom_site_fract_x
 _atom_site_fract_y
 _atom_site_fract_z
 _atom_site_occupancy
  Tm  Tm0  1  0.129274  0.149788  0.999993  1
  Tm  Tm1  1  0.870748  0.850223  0.999997  1
  Tm  Tm2  1  0.629248  0.350234  0.999999  1
  Tm  Tm3  1  0.370735  0.649776  0.999993  1
  B  B4  1  0.476525  0.192477  0.500001  1
  B  B5  1  0.523466  0.807518  0.500002  1
  B  B6  1  0.976546  0.307526  0.500003  1
  B  B7  1  0.023469  0.692471  0.500000  1
  B  B8  1  0.290665  0.314055  0.500000  1
  B  B9  1  0.709320  0.685944  0.500000  1
  B  B10  1  0.790689  0.185954  0.500001  1
  B  B11  1  0.209313  0.814046  0.500003  1
  B  B12  1  0.364830  0.470029  0.500000  1
  B  B13  1  0.635159  0.529964  0.500001  1
  B  B14  1  0.864845  0.029959  0.499996  1
  B  B15  1  0.135159  0.970027  0.500002  1
  B  B16  1  0.387384  0.047207  0.499998  1
  B  B17  1  0.612614  0.952789  0.499998  1
  B  B18  1  0.887384  0.452786  0.499999  1
  B  B19  1  0.112620  0.547211  0.499999  1
  Ru  Ru20  1  0.141309  0.407000  0.000003  1
  Ru  Ru21  1  0.858680  0.593015  0.000009  1
  Ru  Ru22  1  0.641319  0.093013  -0.000003  1
  Ru  Ru23  1  0.358698  0.906992  0.000005  1
