# generated using pymatgen
data_Tm2CuO4
_symmetry_space_group_name_H-M   'P 1'
_cell_length_a   8.39820187
_cell_length_b   6.04076373
_cell_length_c   4.67141988
_cell_angle_alpha   103.00585834
_cell_angle_beta   99.31587567
_cell_angle_gamma   44.00389625
_symmetry_Int_Tables_number   1
_chemical_formula_structural   Tm2CuO4
_chemical_formula_sum   'Tm4 Cu2 O8'
_cell_volume   160.41412119
_cell_formula_units_Z   2
loop_
 _symmetry_equiv_pos_site_id
 _symmetry_equiv_pos_as_xyz
  1  'x, y, z'
loop_
 _atom_site_type_symbol
 _atom_site_label
 _atom_site_symmetry_multiplicity
 _atom_site_fract_x
 _atom_site_fract_y
 _atom_site_fract_z
 _atom_site_occupancy
  Tm  Tm0  1  0.037418  0.657716  0.338443  1
  Tm  Tm1  1  0.537418  0.267447  0.661557  1
  Tm  Tm2  1  0.462582  0.732553  0.338443  1
  Tm  Tm3  1  0.962582  0.342284  0.661557  1
  Cu  Cu4  1  0.000000  0.000000  0.000000  1
  Cu  Cu5  1  0.500000  0.000000  0.000000  1
  O  O6  1  0.107557  0.197992  0.163307  1
  O  O7  1  0.303871  0.196939  0.640956  1
  O  O8  1  0.392443  0.413106  0.163307  1
  O  O9  1  0.196129  0.804681  0.640956  1
  O  O10  1  0.803871  0.195319  0.359044  1
  O  O11  1  0.607557  0.586894  0.836693  1
  O  O12  1  0.696129  0.803061  0.359044  1
  O  O13  1  0.892443  0.802008  0.836693  1
