# generated using pymatgen
data_Tm2FeC4
_symmetry_space_group_name_H-M   'P 1'
_cell_length_a   4.97168537
_cell_length_b   6.49927288
_cell_length_c   6.49927288
_cell_angle_alpha   69.93330569
_cell_angle_beta   67.51260802
_cell_angle_gamma   67.51260803
_symmetry_Int_Tables_number   1
_chemical_formula_structural   Tm2FeC4
_chemical_formula_sum   'Tm4 Fe2 C8'
_cell_volume   174.45476620
_cell_formula_units_Z   2
loop_
 _symmetry_equiv_pos_site_id
 _symmetry_equiv_pos_as_xyz
  1  'x, y, z'
loop_
 _atom_site_type_symbol
 _atom_site_label
 _atom_site_symmetry_multiplicity
 _atom_site_fract_x
 _atom_site_fract_y
 _atom_site_fract_z
 _atom_site_occupancy
  C  C0  1  0.421796  0.245043  0.911364  1
  C  C1  1  0.578204  0.754957  0.088636  1
  C  C2  1  0.078204  0.088636  0.754957  1
  C  C3  1  0.921796  0.911364  0.245043  1
  C  C4  1  0.370100  0.469608  0.790192  1
  C  C5  1  0.629900  0.530392  0.209808  1
  C  C6  1  0.870100  0.790192  0.469608  1
  C  C7  1  0.129900  0.209808  0.530392  1
  Fe  Fe8  1  0.250000  0.000000  0.000000  1
  Fe  Fe9  1  0.750000  0.000000  0.000000  1
  Tm  Tm10  1  0.144706  0.510227  0.200362  1
  Tm  Tm11  1  0.855294  0.489773  0.799638  1
  Tm  Tm12  1  0.355294  0.799638  0.489773  1
  Tm  Tm13  1  0.644706  0.200362  0.510227  1
