# generated using pymatgen
data_Tm2Nb2O7
_symmetry_space_group_name_H-M   'P 1'
_cell_length_a   7.26496253
_cell_length_b   7.26496253
_cell_length_c   7.26496253
_cell_angle_alpha   60.00000000
_cell_angle_beta   90.00000000
_cell_angle_gamma   120.00000000
_symmetry_Int_Tables_number   1
_chemical_formula_structural   Tm2Nb2O7
_chemical_formula_sum   'Tm4 Nb4 O14'
_cell_volume   271.13472238
_cell_formula_units_Z   2
loop_
 _symmetry_equiv_pos_site_id
 _symmetry_equiv_pos_as_xyz
  1  'x, y, z'
loop_
 _atom_site_type_symbol
 _atom_site_label
 _atom_site_symmetry_multiplicity
 _atom_site_fract_x
 _atom_site_fract_y
 _atom_site_fract_z
 _atom_site_occupancy
  Tm  Tm0  1  0.500000  0.000000  0.000000  1
  Tm  Tm1  1  0.500000  0.000000  0.500000  1
  Tm  Tm2  1  0.500000  0.500000  0.500000  1
  Tm  Tm3  1  0.000000  0.500000  0.500000  1
  Nb  Nb4  1  0.000000  0.000000  0.000000  1
  Nb  Nb5  1  0.500000  0.500000  0.000000  1
  Nb  Nb6  1  0.000000  0.500000  0.000000  1
  Nb  Nb7  1  0.000000  0.000000  0.500000  1
  O  O8  1  0.901612  0.250000  0.348388  1
  O  O9  1  0.651612  0.303225  0.098388  1
  O  O10  1  0.651612  0.750000  0.098388  1
  O  O11  1  0.348388  0.250000  0.348388  1
  O  O12  1  0.901612  0.803225  0.348388  1
  O  O13  1  0.901612  0.250000  0.901612  1
  O  O14  1  0.625000  0.250000  0.625000  1
  O  O15  1  0.375000  0.750000  0.375000  1
  O  O16  1  0.651612  0.750000  0.651612  1
  O  O17  1  0.098388  0.750000  0.098388  1
  O  O18  1  0.098388  0.196775  0.651612  1
  O  O19  1  0.348388  0.250000  0.901612  1
  O  O20  1  0.348388  0.696775  0.901612  1
  O  O21  1  0.098388  0.750000  0.651612  1
