# generated using pymatgen
data_TmNiO3
_symmetry_space_group_name_H-M   'P 1'
_cell_length_a   5.17108157
_cell_length_b   5.54210869
_cell_length_c   7.41384329
_cell_angle_alpha   90.00000000
_cell_angle_beta   90.14169232
_cell_angle_gamma   90.00000000
_symmetry_Int_Tables_number   1
_chemical_formula_structural   TmNiO3
_chemical_formula_sum   'Tm4 Ni4 O12'
_cell_volume   212.47043226
_cell_formula_units_Z   4
loop_
 _symmetry_equiv_pos_site_id
 _symmetry_equiv_pos_as_xyz
  1  'x, y, z'
loop_
 _atom_site_type_symbol
 _atom_site_label
 _atom_site_symmetry_multiplicity
 _atom_site_fract_x
 _atom_site_fract_y
 _atom_site_fract_z
 _atom_site_occupancy
  Tm  Tm0  1  0.521583  0.578022  0.249208  1
  Tm  Tm1  1  0.021583  0.921978  0.749208  1
  Tm  Tm2  1  0.478417  0.421978  0.750792  1
  Tm  Tm3  1  0.978417  0.078022  0.250792  1
  Ni  Ni4  1  0.000000  0.500000  0.500000  1
  Ni  Ni5  1  0.500000  0.000000  -0.000000  1
  Ni  Ni6  1  0.000000  0.500000  -0.000000  1
  Ni  Ni7  1  0.500000  0.000000  0.500000  1
  O  O8  1  0.388016  0.962744  0.254939  1
  O  O9  1  0.888016  0.537256  0.754939  1
  O  O10  1  0.611984  0.037256  0.745061  1
  O  O11  1  0.111984  0.462744  0.245061  1
  O  O12  1  0.803657  0.812129  0.446042  1
  O  O13  1  0.303657  0.687871  0.946042  1
  O  O14  1  0.196343  0.187871  0.553958  1
  O  O15  1  0.696343  0.312129  0.053958  1
  O  O16  1  0.314242  0.699370  0.557279  1
  O  O17  1  0.814242  0.800630  0.057279  1
  O  O18  1  0.685758  0.300630  0.442721  1
  O  O19  1  0.185758  0.199370  0.942721  1
