# generated using pymatgen
data_TmTaO4
_symmetry_space_group_name_H-M   'P 1'
_cell_length_a   7.56473537
_cell_length_b   5.30164805
_cell_length_c   7.54921400
_cell_angle_alpha   90.00000000
_cell_angle_beta   98.36974141
_cell_angle_gamma   90.00000000
_symmetry_Int_Tables_number   1
_chemical_formula_structural   TmTaO4
_chemical_formula_sum   'Tm4 Ta4 O16'
_cell_volume   299.54083777
_cell_formula_units_Z   4
loop_
 _symmetry_equiv_pos_site_id
 _symmetry_equiv_pos_as_xyz
  1  'x, y, z'
loop_
 _atom_site_type_symbol
 _atom_site_label
 _atom_site_symmetry_multiplicity
 _atom_site_fract_x
 _atom_site_fract_y
 _atom_site_fract_z
 _atom_site_occupancy
  Tm  Tm0  1  0.354972  0.721264  0.613586  1
  Tm  Tm1  1  0.354972  0.778736  0.113586  1
  Tm  Tm2  1  0.645028  0.221264  0.886414  1
  Tm  Tm3  1  0.645028  0.278736  0.386414  1
  Ta  Ta4  1  0.165788  0.231966  0.810924  1
  Ta  Ta5  1  0.165788  0.268034  0.310924  1
  Ta  Ta6  1  0.834212  0.731966  0.689076  1
  Ta  Ta7  1  0.834212  0.768034  0.189076  1
  O  O8  1  0.066827  0.900127  0.689675  1
  O  O9  1  0.066827  0.599873  0.189675  1
  O  O10  1  0.174180  0.378920  0.563043  1
  O  O11  1  0.174180  0.121080  0.063043  1
  O  O12  1  0.323979  0.510054  0.884046  1
  O  O13  1  0.392746  0.015652  0.824982  1
  O  O14  1  0.323979  0.989946  0.384046  1
  O  O15  1  0.392746  0.484348  0.324982  1
  O  O16  1  0.607254  0.515652  0.675018  1
  O  O17  1  0.676021  0.010054  0.615954  1
  O  O18  1  0.607254  0.984348  0.175018  1
  O  O19  1  0.676021  0.489946  0.115954  1
  O  O20  1  0.825820  0.878920  0.936957  1
  O  O21  1  0.825820  0.621080  0.436957  1
  O  O22  1  0.933173  0.400127  0.810325  1
  O  O23  1  0.933173  0.099873  0.310325  1
