# generated using pymatgen
data_Tm2TiO5
_symmetry_space_group_name_H-M   'P 1'
_cell_length_a   4.05339925
_cell_length_b   5.80540575
_cell_length_c   10.42510867
_cell_angle_alpha   90.00000000
_cell_angle_beta   90.00000000
_cell_angle_gamma   69.56737563
_symmetry_Int_Tables_number   1
_chemical_formula_structural   Tm2TiO5
_chemical_formula_sum   'Tm4 Ti2 O10'
_cell_volume   229.88507588
_cell_formula_units_Z   2
loop_
 _symmetry_equiv_pos_site_id
 _symmetry_equiv_pos_as_xyz
  1  'x, y, z'
loop_
 _atom_site_type_symbol
 _atom_site_label
 _atom_site_symmetry_multiplicity
 _atom_site_fract_x
 _atom_site_fract_y
 _atom_site_fract_z
 _atom_site_occupancy
  Tm  Tm0  1  0.142781  0.714438  0.931115  1
  Tm  Tm1  1  0.142781  0.714438  0.568885  1
  Tm  Tm2  1  0.857219  0.285562  0.068885  1
  Tm  Tm3  1  0.857219  0.285562  0.431115  1
  Ti  Ti4  1  0.173562  0.652876  0.250000  1
  Ti  Ti5  1  0.826438  0.347124  0.750000  1
  O  O6  1  0.051105  0.897789  0.376884  1
  O  O7  1  0.051105  0.897789  0.123116  1
  O  O8  1  0.707611  0.584778  0.910283  1
  O  O9  1  0.707611  0.584778  0.589717  1
  O  O10  1  0.270719  0.458563  0.750000  1
  O  O11  1  0.729281  0.541437  0.250000  1
  O  O12  1  0.292389  0.415222  0.089717  1
  O  O13  1  0.292389  0.415222  0.410283  1
  O  O14  1  0.948895  0.102211  0.623116  1
  O  O15  1  0.948895  0.102211  0.876884  1
