# generated using pymatgen
data_Tm2TiO5
_symmetry_space_group_name_H-M   'P 1'
_cell_length_a   5.26004390
_cell_length_b   6.33637935
_cell_length_c   7.50121799
_cell_angle_alpha   68.69280487
_cell_angle_beta   90.00000000
_cell_angle_gamma   65.47646430
_symmetry_Int_Tables_number   1
_chemical_formula_structural   Tm2TiO5
_chemical_formula_sum   'Tm4 Ti2 O10'
_cell_volume   208.52973670
_cell_formula_units_Z   2
loop_
 _symmetry_equiv_pos_site_id
 _symmetry_equiv_pos_as_xyz
  1  'x, y, z'
loop_
 _atom_site_type_symbol
 _atom_site_label
 _atom_site_symmetry_multiplicity
 _atom_site_fract_x
 _atom_site_fract_y
 _atom_site_fract_z
 _atom_site_occupancy
  Tm  Tm0  1  0.630524  0.724733  0.748515  1
  Tm  Tm1  1  0.644741  0.724733  0.248515  1
  Tm  Tm2  1  0.355259  0.275267  0.751485  1
  Tm  Tm3  1  0.369476  0.275267  0.251485  1
  Ti  Ti4  1  0.000000  0.000000  0.500000  1
  Ti  Ti5  1  0.000000  0.000000  0.000000  1
  O  O6  1  0.752442  0.855433  0.955080  1
  O  O7  1  0.392126  0.855433  0.455080  1
  O  O8  1  0.026781  0.658957  0.641053  1
  O  O9  1  0.685737  0.341043  0.858947  1
  O  O10  1  0.314263  0.658957  0.141052  1
  O  O11  1  0.973219  0.341043  0.358947  1
  O  O12  1  0.607874  0.144567  0.544920  1
  O  O13  1  0.171508  0.000000  0.750000  1
  O  O14  1  0.247558  0.144567  0.044920  1
  O  O15  1  0.828492  0.000000  0.250000  1
