# generated using pymatgen
data_CdNi
_symmetry_space_group_name_H-M   'P 1'
_cell_length_a   8.57553585
_cell_length_b   8.57553585
_cell_length_c   8.57553585
_cell_angle_alpha   60.00000003
_cell_angle_beta   60.00000004
_cell_angle_gamma   60.00000000
_symmetry_Int_Tables_number   1
_chemical_formula_structural   CdNi
_chemical_formula_sum   'Cd12 Ni12'
_cell_volume   445.93216883
_cell_formula_units_Z   12
loop_
 _symmetry_equiv_pos_site_id
 _symmetry_equiv_pos_as_xyz
  1  'x, y, z'
loop_
 _atom_site_type_symbol
 _atom_site_label
 _atom_site_symmetry_multiplicity
 _atom_site_fract_x
 _atom_site_fract_y
 _atom_site_fract_z
 _atom_site_occupancy
  Ni  Ni0  1  0.803278  0.803278  0.803278  1
  Ni  Ni1  1  0.196722  0.196722  0.909833  1
  Ni  Ni2  1  0.196722  0.909833  0.196722  1
  Ni  Ni3  1  0.909833  0.196722  0.196722  1
  Ni  Ni4  1  0.803278  0.090167  0.803278  1
  Ni  Ni5  1  0.090167  0.803278  0.803278  1
  Ni  Ni6  1  0.803278  0.803278  0.090167  1
  Ni  Ni7  1  0.196722  0.196722  0.196722  1
  Ni  Ni8  1  0.500000  0.000000  0.500000  1
  Ni  Ni9  1  0.000000  0.500000  0.500000  1
  Ni  Ni10  1  0.500000  0.500000  0.000000  1
  Ni  Ni11  1  0.500000  0.500000  0.500000  1
  Cd  Cd12  1  0.389105  0.860895  0.860895  1
  Cd  Cd13  1  0.139105  0.610895  0.610895  1
  Cd  Cd14  1  0.860895  0.389105  0.860895  1
  Cd  Cd15  1  0.860895  0.860895  0.389105  1
  Cd  Cd16  1  0.389105  0.389105  0.860895  1
  Cd  Cd17  1  0.389105  0.860895  0.389105  1
  Cd  Cd18  1  0.139105  0.610895  0.139105  1
  Cd  Cd19  1  0.610895  0.139105  0.610895  1
  Cd  Cd20  1  0.610895  0.139105  0.139105  1
  Cd  Cd21  1  0.139105  0.139105  0.610895  1
  Cd  Cd22  1  0.610895  0.610895  0.139105  1
  Cd  Cd23  1  0.860895  0.389105  0.389105  1
