# generated using pymatgen
data_TmVO3
_symmetry_space_group_name_H-M   'P 1'
_cell_length_a   5.26282883
_cell_length_b   5.68801226
_cell_length_c   7.62239865
_cell_angle_alpha   90.00000000
_cell_angle_beta   90.12392436
_cell_angle_gamma   90.00000000
_symmetry_Int_Tables_number   1
_chemical_formula_structural   TmVO3
_chemical_formula_sum   'Tm4 V4 O12'
_cell_volume   228.17623586
_cell_formula_units_Z   4
loop_
 _symmetry_equiv_pos_site_id
 _symmetry_equiv_pos_as_xyz
  1  'x, y, z'
loop_
 _atom_site_type_symbol
 _atom_site_label
 _atom_site_symmetry_multiplicity
 _atom_site_fract_x
 _atom_site_fract_y
 _atom_site_fract_z
 _atom_site_occupancy
  Tm  Tm0  1  0.022260  0.929273  0.749354  1
  Tm  Tm1  1  0.477740  0.429273  0.750646  1
  Tm  Tm2  1  0.522260  0.570727  0.249354  1
  Tm  Tm3  1  0.977740  0.070727  0.250646  1
  V  V4  1  0.000000  0.500000  0.500000  1
  V  V5  1  0.000000  0.500000  0.000000  1
  V  V6  1  0.500000  0.000000  0.500000  1
  V  V7  1  0.500000  0.000000  0.000000  1
  O  O8  1  0.125238  0.448338  0.249846  1
  O  O9  1  0.191724  0.187128  0.936285  1
  O  O10  1  0.191393  0.187113  0.562617  1
  O  O11  1  0.308607  0.687113  0.937383  1
  O  O12  1  0.308276  0.687128  0.563715  1
  O  O13  1  0.374762  0.948338  0.250154  1
  O  O14  1  0.625238  0.051662  0.749846  1
  O  O15  1  0.691724  0.312872  0.436285  1
  O  O16  1  0.691393  0.312887  0.062617  1
  O  O17  1  0.808607  0.812887  0.437383  1
  O  O18  1  0.808276  0.812872  0.063715  1
  O  O19  1  0.874762  0.551662  0.750154  1
