# generated using pymatgen
data_Tm2(WO4)3
_symmetry_space_group_name_H-M   'P 1'
_cell_length_a   6.87344520
_cell_length_b   6.87344520
_cell_length_c   11.36061775
_cell_angle_alpha   78.93986394
_cell_angle_beta   101.06013606
_cell_angle_gamma   67.88640700
_symmetry_Int_Tables_number   1
_chemical_formula_structural   Tm2(WO4)3
_chemical_formula_sum   'Tm4 W6 O24'
_cell_volume   466.97360525
_cell_formula_units_Z   2
loop_
 _symmetry_equiv_pos_site_id
 _symmetry_equiv_pos_as_xyz
  1  'x, y, z'
loop_
 _atom_site_type_symbol
 _atom_site_label
 _atom_site_symmetry_multiplicity
 _atom_site_fract_x
 _atom_site_fract_y
 _atom_site_fract_z
 _atom_site_occupancy
  Tm  Tm0  1  0.304160  0.951096  0.591635  1
  Tm  Tm1  1  0.048904  0.695840  0.091635  1
  Tm  Tm2  1  0.951096  0.304160  0.908365  1
  Tm  Tm3  1  0.695840  0.048904  0.408365  1
  W  W4  1  0.488737  0.795202  0.949346  1
  W  W5  1  0.204798  0.511263  0.449346  1
  W  W6  1  0.881937  0.881937  0.750000  1
  W  W7  1  0.118063  0.118063  0.250000  1
  W  W8  1  0.795202  0.488737  0.550654  1
  W  W9  1  0.511263  0.204798  0.050654  1
  O  O10  1  0.342386  0.798515  0.795603  1
  O  O11  1  0.588791  0.990592  0.719453  1
  O  O12  1  0.973318  0.945561  0.896033  1
  O  O13  1  0.331424  0.609056  0.561698  1
  O  O14  1  0.782120  0.618027  0.961546  1
  O  O15  1  0.104032  0.318438  0.575461  1
  O  O16  1  0.201485  0.657614  0.295603  1
  O  O17  1  0.318438  0.104032  0.924539  1
  O  O18  1  0.618027  0.782120  0.538454  1
  O  O19  1  0.609056  0.331424  0.938302  1
  O  O20  1  0.945561  0.973318  0.603967  1
  O  O21  1  0.009408  0.411209  0.219453  1
  O  O22  1  0.990592  0.588791  0.780547  1
  O  O23  1  0.054439  0.026682  0.396033  1
  O  O24  1  0.390944  0.668576  0.061698  1
  O  O25  1  0.381973  0.217880  0.461546  1
  O  O26  1  0.681562  0.895968  0.075461  1
  O  O27  1  0.798515  0.342386  0.704397  1
  O  O28  1  0.895968  0.681562  0.424539  1
  O  O29  1  0.217880  0.381973  0.038454  1
  O  O30  1  0.668576  0.390944  0.438302  1
  O  O31  1  0.026682  0.054439  0.103968  1
  O  O32  1  0.411209  0.009408  0.280547  1
  O  O33  1  0.657614  0.201485  0.204397  1
