# generated using pymatgen
data_Tm6ReO12
_symmetry_space_group_name_H-M   'P 1'
_cell_length_a   6.38700863
_cell_length_b   6.38700863
_cell_length_c   6.38700863
_cell_angle_alpha   98.81782599
_cell_angle_beta   98.81782603
_cell_angle_gamma   98.81782598
_symmetry_Int_Tables_number   1
_chemical_formula_structural   Tm6ReO12
_chemical_formula_sum   'Tm6 Re1 O12'
_cell_volume   250.22367353
_cell_formula_units_Z   1
loop_
 _symmetry_equiv_pos_site_id
 _symmetry_equiv_pos_as_xyz
  1  'x, y, z'
loop_
 _atom_site_type_symbol
 _atom_site_label
 _atom_site_symmetry_multiplicity
 _atom_site_fract_x
 _atom_site_fract_y
 _atom_site_fract_z
 _atom_site_occupancy
  O  O0  1  0.589937  0.430192  0.177342  1
  O  O1  1  0.430192  0.177342  0.589937  1
  O  O2  1  0.177342  0.589937  0.430192  1
  O  O3  1  0.410063  0.569808  0.822658  1
  O  O4  1  0.569808  0.822658  0.410063  1
  O  O5  1  0.822658  0.410063  0.569808  1
  O  O6  1  0.038437  0.922307  0.701536  1
  O  O7  1  0.298464  0.961563  0.077693  1
  O  O8  1  0.077693  0.298464  0.961563  1
  O  O9  1  0.961563  0.077693  0.298464  1
  O  O10  1  0.701536  0.038437  0.922307  1
  O  O11  1  0.922307  0.701536  0.038437  1
  Tm  Tm12  1  0.856110  0.682523  0.389975  1
  Tm  Tm13  1  0.682523  0.389975  0.856110  1
  Tm  Tm14  1  0.389975  0.856110  0.682523  1
  Tm  Tm15  1  0.143890  0.317477  0.610025  1
  Tm  Tm16  1  0.317477  0.610025  0.143890  1
  Tm  Tm17  1  0.610025  0.143890  0.317477  1
  Re  Re18  1  0.000000  0.000000  0.000000  1
