# generated using pymatgen
data_Tm3ReB7
_symmetry_space_group_name_H-M   'P 1'
_cell_length_a   7.97497750
_cell_length_b   7.97497750
_cell_length_c   9.27318027
_cell_angle_alpha   90.00000000
_cell_angle_beta   90.00000000
_cell_angle_gamma   25.33437140
_symmetry_Int_Tables_number   1
_chemical_formula_structural   Tm3ReB7
_chemical_formula_sum   'Tm6 Re2 B14'
_cell_volume   252.36554678
_cell_formula_units_Z   2
loop_
 _symmetry_equiv_pos_site_id
 _symmetry_equiv_pos_as_xyz
  1  'x, y, z'
loop_
 _atom_site_type_symbol
 _atom_site_label
 _atom_site_symmetry_multiplicity
 _atom_site_fract_x
 _atom_site_fract_y
 _atom_site_fract_z
 _atom_site_occupancy
  Tm  Tm0  1  0.105706  0.105706  0.059579  1
  Tm  Tm1  1  0.894294  0.894294  0.559579  1
  Tm  Tm2  1  0.894294  0.894294  0.940421  1
  Tm  Tm3  1  0.105706  0.105706  0.440421  1
  Tm  Tm4  1  0.756734  0.756734  0.250000  1
  Tm  Tm5  1  0.243266  0.243266  0.750000  1
  Re  Re6  1  0.947770  0.947770  0.250000  1
  Re  Re7  1  0.052230  0.052230  0.750000  1
  B  B8  1  0.545792  0.545792  0.250000  1
  B  B9  1  0.454208  0.454208  0.750000  1
  B  B10  1  0.272518  0.272518  0.033637  1
  B  B11  1  0.727482  0.727482  0.533637  1
  B  B12  1  0.727482  0.727482  0.966363  1
  B  B13  1  0.272518  0.272518  0.466362  1
  B  B14  1  0.367477  0.367477  0.349818  1
  B  B15  1  0.632523  0.632523  0.849819  1
  B  B16  1  0.632523  0.632523  0.650182  1
  B  B17  1  0.367477  0.367477  0.150181  1
  B  B18  1  0.480139  0.480139  0.405470  1
  B  B19  1  0.519860  0.519860  0.905470  1
  B  B20  1  0.519860  0.519860  0.594530  1
  B  B21  1  0.480139  0.480139  0.094529  1
