# generated using pymatgen
data_Tm2Cu2O5
_symmetry_space_group_name_H-M   'P 1'
_cell_length_a   3.45893769
_cell_length_b   10.81812762
_cell_length_c   12.43445839
_cell_angle_alpha   90.00000000
_cell_angle_beta   90.00000000
_cell_angle_gamma   90.00000000
_symmetry_Int_Tables_number   1
_chemical_formula_structural   Tm2Cu2O5
_chemical_formula_sum   'Tm8 Cu8 O20'
_cell_volume   465.28785046
_cell_formula_units_Z   4
loop_
 _symmetry_equiv_pos_site_id
 _symmetry_equiv_pos_as_xyz
  1  'x, y, z'
loop_
 _atom_site_type_symbol
 _atom_site_label
 _atom_site_symmetry_multiplicity
 _atom_site_fract_x
 _atom_site_fract_y
 _atom_site_fract_z
 _atom_site_occupancy
  O  O0  1  0.272027  0.922375  0.028006  1
  O  O1  1  0.727973  0.077625  0.528006  1
  O  O2  1  0.227973  0.422375  0.028006  1
  O  O3  1  0.772027  0.577625  0.528006  1
  O  O4  1  0.724432  0.929268  0.235725  1
  O  O5  1  0.275568  0.070732  0.735725  1
  O  O6  1  0.775568  0.429268  0.235725  1
  O  O7  1  0.224432  0.570732  0.735725  1
  O  O8  1  0.165866  0.624621  0.334363  1
  O  O9  1  0.834134  0.375379  0.834363  1
  O  O10  1  0.334134  0.124621  0.334363  1
  O  O11  1  0.665866  0.875379  0.834363  1
  O  O12  1  0.780896  0.821059  0.433579  1
  O  O13  1  0.219104  0.178941  0.933579  1
  O  O14  1  0.719104  0.321059  0.433579  1
  O  O15  1  0.280896  0.678941  0.933579  1
  O  O16  1  0.275622  0.827501  0.641013  1
  O  O17  1  0.724378  0.172499  0.141013  1
  O  O18  1  0.224378  0.327501  0.641013  1
  O  O19  1  0.775622  0.672499  0.141013  1
  Cu  Cu20  1  0.844817  0.761603  0.281038  1
  Cu  Cu21  1  0.155183  0.238397  0.781038  1
  Cu  Cu22  1  0.655183  0.261603  0.281038  1
  Cu  Cu23  1  0.344817  0.738397  0.781038  1
  Cu  Cu24  1  0.840355  0.488581  0.387924  1
  Cu  Cu25  1  0.159645  0.511419  0.887924  1
  Cu  Cu26  1  0.659645  0.988581  0.387924  1
  Cu  Cu27  1  0.340355  0.011419  0.887924  1
  Tm  Tm28  1  0.276484  0.542440  0.170332  1
  Tm  Tm29  1  0.723516  0.457560  0.670332  1
  Tm  Tm30  1  0.223516  0.042440  0.170332  1
  Tm  Tm31  1  0.776484  0.957560  0.670332  1
  Tm  Tm32  1  0.277555  0.707626  0.498221  1
  Tm  Tm33  1  0.722445  0.292374  0.998221  1
  Tm  Tm34  1  0.222445  0.207626  0.498221  1
  Tm  Tm35  1  0.777555  0.792374  0.998221  1
