# generated using pymatgen
data_Tm2Fe14B
_symmetry_space_group_name_H-M   'P 1'
_cell_length_a   8.70990165
_cell_length_b   8.70990165
_cell_length_c   11.81841413
_cell_angle_alpha   90.00000000
_cell_angle_beta   90.00000000
_cell_angle_gamma   90.00000000
_symmetry_Int_Tables_number   1
_chemical_formula_structural   Tm2Fe14B
_chemical_formula_sum   'Tm8 Fe56 B4'
_cell_volume   896.57310353
_cell_formula_units_Z   4
loop_
 _symmetry_equiv_pos_site_id
 _symmetry_equiv_pos_as_xyz
  1  'x, y, z'
loop_
 _atom_site_type_symbol
 _atom_site_label
 _atom_site_symmetry_multiplicity
 _atom_site_fract_x
 _atom_site_fract_y
 _atom_site_fract_z
 _atom_site_occupancy
  B  B0  1  0.625082  0.374918  0.000000  1
  B  B1  1  0.125082  0.125082  0.500000  1
  B  B2  1  0.874918  0.874918  0.500000  1
  B  B3  1  0.374918  0.625082  0.000000  1
  Fe  Fe4  1  0.358308  0.037213  0.174104  1
  Fe  Fe5  1  0.641692  0.962787  0.174104  1
  Fe  Fe6  1  0.037213  0.358308  0.825896  1
  Fe  Fe7  1  0.537213  0.141692  0.674104  1
  Fe  Fe8  1  0.462787  0.858308  0.674104  1
  Fe  Fe9  1  0.141692  0.537213  0.325896  1
  Fe  Fe10  1  0.858308  0.462787  0.325896  1
  Fe  Fe11  1  0.962787  0.641692  0.825896  1
  Fe  Fe12  1  0.641692  0.962787  0.825896  1
  Fe  Fe13  1  0.358308  0.037213  0.825896  1
  Fe  Fe14  1  0.962787  0.641692  0.174104  1
  Fe  Fe15  1  0.462787  0.858308  0.325896  1
  Fe  Fe16  1  0.537213  0.141692  0.325896  1
  Fe  Fe17  1  0.858308  0.462787  0.674104  1
  Fe  Fe18  1  0.141692  0.537213  0.674104  1
  Fe  Fe19  1  0.037213  0.358308  0.174104  1
  Fe  Fe20  1  0.565878  0.224345  0.125830  1
  Fe  Fe21  1  0.434122  0.775655  0.125830  1
  Fe  Fe22  1  0.224345  0.565878  0.874170  1
  Fe  Fe23  1  0.724345  0.934122  0.625830  1
  Fe  Fe24  1  0.275655  0.065878  0.625830  1
  Fe  Fe25  1  0.934122  0.724345  0.374170  1
  Fe  Fe26  1  0.065878  0.275655  0.374170  1
  Fe  Fe27  1  0.775655  0.434122  0.874170  1
  Fe  Fe28  1  0.434122  0.775655  0.874170  1
  Fe  Fe29  1  0.565878  0.224345  0.874170  1
  Fe  Fe30  1  0.775655  0.434122  0.125830  1
  Fe  Fe31  1  0.275655  0.065878  0.374170  1
  Fe  Fe32  1  0.724345  0.934122  0.374170  1
  Fe  Fe33  1  0.065878  0.275655  0.625830  1
  Fe  Fe34  1  0.934122  0.724345  0.625830  1
  Fe  Fe35  1  0.224345  0.565878  0.125830  1
  Fe  Fe36  1  0.683072  0.683072  0.754062  1
  Fe  Fe37  1  0.316928  0.316928  0.754062  1
  Fe  Fe38  1  0.683072  0.683072  0.245938  1
  Fe  Fe39  1  0.183072  0.816928  0.254062  1
  Fe  Fe40  1  0.816928  0.183072  0.254062  1
  Fe  Fe41  1  0.816928  0.183072  0.745938  1
  Fe  Fe42  1  0.183072  0.816928  0.745938  1
  Fe  Fe43  1  0.316928  0.316928  0.245938  1
  Fe  Fe44  1  0.902955  0.902955  0.801103  1
  Fe  Fe45  1  0.097045  0.097045  0.801103  1
  Fe  Fe46  1  0.902955  0.902955  0.198897  1
  Fe  Fe47  1  0.402955  0.597045  0.301103  1
  Fe  Fe48  1  0.597045  0.402955  0.301103  1
  Fe  Fe49  1  0.597045  0.402955  0.698897  1
  Fe  Fe50  1  0.402955  0.597045  0.698897  1
  Fe  Fe51  1  0.097045  0.097045  0.198897  1
  Fe  Fe52  1  0.000000  0.000000  0.383916  1
  Fe  Fe53  1  0.500000  0.500000  0.883916  1
  Fe  Fe54  1  0.500000  0.500000  0.116084  1
  Fe  Fe55  1  0.000000  0.000000  0.616084  1
  Fe  Fe56  1  0.500000  0.000000  0.000000  1
  Fe  Fe57  1  0.500000  0.000000  0.500000  1
  Fe  Fe58  1  0.000000  0.500000  0.500000  1
  Fe  Fe59  1  0.000000  0.500000  0.000000  1
  Tm  Tm60  1  0.856436  0.143564  0.000000  1
  Tm  Tm61  1  0.356436  0.356436  0.500000  1
  Tm  Tm62  1  0.643564  0.643564  0.500000  1
  Tm  Tm63  1  0.143564  0.856436  0.000000  1
  Tm  Tm64  1  0.733481  0.733481  0.000000  1
  Tm  Tm65  1  0.766519  0.233481  0.500000  1
  Tm  Tm66  1  0.233481  0.766519  0.500000  1
  Tm  Tm67  1  0.266519  0.266519  0.000000  1
