# generated using pymatgen
data_Tm2Fe14C
_symmetry_space_group_name_H-M   'P 1'
_cell_length_a   8.70082117
_cell_length_b   8.70082117
_cell_length_c   11.64170914
_cell_angle_alpha   90.00000000
_cell_angle_beta   90.00000000
_cell_angle_gamma   90.00000000
_symmetry_Int_Tables_number   1
_chemical_formula_structural   Tm2Fe14C
_chemical_formula_sum   'Tm8 Fe56 C4'
_cell_volume   881.32731356
_cell_formula_units_Z   4
loop_
 _symmetry_equiv_pos_site_id
 _symmetry_equiv_pos_as_xyz
  1  'x, y, z'
loop_
 _atom_site_type_symbol
 _atom_site_label
 _atom_site_symmetry_multiplicity
 _atom_site_fract_x
 _atom_site_fract_y
 _atom_site_fract_z
 _atom_site_occupancy
  Tm  Tm0  1  0.643347  0.643347  0.500000  1
  Tm  Tm1  1  0.758957  0.241043  0.500000  1
  Tm  Tm2  1  0.856653  0.143347  0.000000  1
  Tm  Tm3  1  0.258957  0.258957  0.000000  1
  Tm  Tm4  1  0.356653  0.356653  0.500000  1
  Tm  Tm5  1  0.143347  0.856653  0.000000  1
  Tm  Tm6  1  0.241043  0.758957  0.500000  1
  Tm  Tm7  1  0.741043  0.741043  0.000000  1
  Fe  Fe8  1  0.683964  0.683964  0.754683  1
  Fe  Fe9  1  0.725153  0.935619  0.620097  1
  Fe  Fe10  1  0.642535  0.964073  0.825253  1
  Fe  Fe11  1  0.774847  0.435619  0.120097  1
  Fe  Fe12  1  0.857465  0.464073  0.674747  1
  Fe  Fe13  1  0.500000  0.000000  0.000000  1
  Fe  Fe14  1  0.903094  0.903094  0.797557  1
  Fe  Fe15  1  0.435619  0.774847  0.879903  1
  Fe  Fe16  1  0.596906  0.403094  0.297557  1
  Fe  Fe17  1  0.500000  0.500000  0.892031  1
  Fe  Fe18  1  0.464073  0.857465  0.674747  1
  Fe  Fe19  1  0.935619  0.725153  0.379903  1
  Fe  Fe20  1  0.403094  0.596906  0.702443  1
  Fe  Fe21  1  0.816036  0.183964  0.254683  1
  Fe  Fe22  1  0.535927  0.142535  0.325253  1
  Fe  Fe23  1  0.903094  0.903094  0.202443  1
  Fe  Fe24  1  0.357465  0.035927  0.825253  1
  Fe  Fe25  1  0.857465  0.464073  0.325253  1
  Fe  Fe26  1  0.035927  0.357465  0.825253  1
  Fe  Fe27  1  0.935619  0.725153  0.620097  1
  Fe  Fe28  1  0.435619  0.774847  0.120097  1
  Fe  Fe29  1  0.316036  0.316036  0.245317  1
  Fe  Fe30  1  0.316036  0.316036  0.754683  1
  Fe  Fe31  1  0.964073  0.642535  0.174747  1
  Fe  Fe32  1  0.964073  0.642535  0.825253  1
  Fe  Fe33  1  0.816036  0.183964  0.745317  1
  Fe  Fe34  1  0.535927  0.142535  0.674747  1
  Fe  Fe35  1  0.274847  0.064381  0.379903  1
  Fe  Fe36  1  0.064381  0.274847  0.620097  1
  Fe  Fe37  1  0.225153  0.564381  0.120097  1
  Fe  Fe38  1  0.142535  0.535927  0.674747  1
  Fe  Fe39  1  0.564381  0.225153  0.120097  1
  Fe  Fe40  1  0.274847  0.064381  0.620097  1
  Fe  Fe41  1  0.183964  0.816036  0.254683  1
  Fe  Fe42  1  0.403094  0.596906  0.297557  1
  Fe  Fe43  1  0.683964  0.683964  0.245317  1
  Fe  Fe44  1  0.725153  0.935619  0.379903  1
  Fe  Fe45  1  0.000000  0.000000  0.392031  1
  Fe  Fe46  1  0.064381  0.274847  0.379903  1
  Fe  Fe47  1  0.500000  0.500000  0.107969  1
  Fe  Fe48  1  0.035927  0.357465  0.174747  1
  Fe  Fe49  1  0.596906  0.403094  0.702443  1
  Fe  Fe50  1  0.357465  0.035927  0.174747  1
  Fe  Fe51  1  0.096906  0.096906  0.202443  1
  Fe  Fe52  1  0.183964  0.816036  0.745317  1
  Fe  Fe53  1  0.464073  0.857465  0.325253  1
  Fe  Fe54  1  0.642535  0.964073  0.174747  1
  Fe  Fe55  1  0.000000  0.000000  0.607969  1
  Fe  Fe56  1  0.096906  0.096906  0.797557  1
  Fe  Fe57  1  0.225153  0.564381  0.879903  1
  Fe  Fe58  1  0.774847  0.435619  0.879903  1
  Fe  Fe59  1  0.564381  0.225153  0.879903  1
  Fe  Fe60  1  0.000000  0.500000  0.000000  1
  Fe  Fe61  1  0.142535  0.535927  0.325253  1
  Fe  Fe62  1  0.500000  0.000000  0.500000  1
  Fe  Fe63  1  0.000000  0.500000  0.500000  1
  C  C64  1  0.871883  0.871883  0.500000  1
  C  C65  1  0.128117  0.128117  0.500000  1
  C  C66  1  0.371883  0.628117  0.000000  1
  C  C67  1  0.628117  0.371883  0.000000  1
