# generated using pymatgen
data_Tm2MoO6
_symmetry_space_group_name_H-M   'P 1'
_cell_length_a   5.32900908
_cell_length_b   9.84401551
_cell_length_c   9.84402849
_cell_angle_alpha   67.85520654
_cell_angle_beta   74.89255625
_cell_angle_gamma   74.89253923
_symmetry_Int_Tables_number   1
_chemical_formula_structural   Tm2MoO6
_chemical_formula_sum   'Tm8 Mo4 O24'
_cell_volume   454.10433299
_cell_formula_units_Z   4
loop_
 _symmetry_equiv_pos_site_id
 _symmetry_equiv_pos_as_xyz
  1  'x, y, z'
loop_
 _atom_site_type_symbol
 _atom_site_label
 _atom_site_symmetry_multiplicity
 _atom_site_fract_x
 _atom_site_fract_y
 _atom_site_fract_z
 _atom_site_occupancy
  O  O0  1  0.922316  0.571962  0.609818  1
  O  O1  1  0.577684  0.390181  0.428038  1
  O  O2  1  0.077684  0.428038  0.390181  1
  O  O3  1  0.422318  0.609818  0.571962  1
  O  O4  1  0.919334  0.805300  0.337594  1
  O  O5  1  0.580667  0.662406  0.194700  1
  O  O6  1  0.080667  0.194700  0.662405  1
  O  O7  1  0.419335  0.337594  0.805299  1
  O  O8  1  0.377023  0.884418  0.325821  1
  O  O9  1  0.122976  0.674178  0.115583  1
  O  O10  1  0.622976  0.115582  0.674179  1
  O  O11  1  0.877023  0.325822  0.884418  1
  O  O12  1  0.635620  0.289621  0.187027  1
  O  O13  1  0.864380  0.812972  0.710380  1
  O  O14  1  0.364380  0.710378  0.812973  1
  O  O15  1  0.135621  0.187028  0.289620  1
  O  O16  1  0.512568  0.108297  0.049222  1
  O  O17  1  0.987432  0.950778  0.891705  1
  O  O18  1  0.751455  0.024138  0.433369  1
  O  O19  1  0.012569  0.049222  0.108296  1
  O  O20  1  0.251454  0.433370  0.024137  1
  O  O21  1  0.248544  0.975863  0.566631  1
  O  O22  1  0.748545  0.566631  0.975862  1
  O  O23  1  0.487432  0.891703  0.950778  1
  Mo  Mo24  1  0.061272  0.013083  0.295601  1
  Mo  Mo25  1  0.438733  0.704398  0.986917  1
  Mo  Mo26  1  0.938728  0.986918  0.704398  1
  Mo  Mo27  1  0.561267  0.295602  0.013084  1
  Tm  Tm28  1  0.623450  0.782371  0.551286  1
  Tm  Tm29  1  0.123451  0.551286  0.782371  1
  Tm  Tm30  1  0.376549  0.217629  0.448715  1
  Tm  Tm31  1  0.876551  0.448714  0.217629  1
  Tm  Tm32  1  0.250001  0.137352  0.862649  1
  Tm  Tm33  1  0.749998  0.862648  0.137352  1
  Tm  Tm34  1  0.250000  0.605247  0.394753  1
  Tm  Tm35  1  0.750000  0.394753  0.605247  1
