# generated using pymatgen
data_Tm2Ti2O7
_symmetry_space_group_name_H-M   'P 1'
_cell_length_a   7.47604912
_cell_length_b   13.14741998
_cell_length_c   5.28293308
_cell_angle_alpha   90.00000000
_cell_angle_beta   90.00000000
_cell_angle_gamma   98.30676214
_symmetry_Int_Tables_number   1
_chemical_formula_structural   Tm2Ti2O7
_chemical_formula_sum   'Tm8 Ti8 O28'
_cell_volume   513.81576875
_cell_formula_units_Z   4
loop_
 _symmetry_equiv_pos_site_id
 _symmetry_equiv_pos_as_xyz
  1  'x, y, z'
loop_
 _atom_site_type_symbol
 _atom_site_label
 _atom_site_symmetry_multiplicity
 _atom_site_fract_x
 _atom_site_fract_y
 _atom_site_fract_z
 _atom_site_occupancy
  Tm  Tm0  1  0.234885  0.926416  0.775803  1
  Tm  Tm1  1  0.141164  0.560926  0.358542  1
  Tm  Tm2  1  0.286429  0.136121  0.246126  1
  Tm  Tm3  1  0.355539  0.385753  0.778536  1
  Tm  Tm4  1  0.644461  0.614247  0.278536  1
  Tm  Tm5  1  0.713571  0.863879  0.746126  1
  Tm  Tm6  1  0.858836  0.439074  0.858542  1
  Tm  Tm7  1  0.765115  0.073584  0.275803  1
  Ti  Ti8  1  0.069638  0.320983  0.282390  1
  Ti  Ti9  1  0.030043  0.121846  0.769679  1
  Ti  Ti10  1  0.409563  0.671226  0.793514  1
  Ti  Ti11  1  0.469287  0.874055  0.268451  1
  Ti  Ti12  1  0.530713  0.125945  0.768451  1
  Ti  Ti13  1  0.590437  0.328774  0.293514  1
  Ti  Ti14  1  0.969957  0.878154  0.269679  1
  Ti  Ti15  1  0.930362  0.679017  0.782390  1
  O  O16  1  0.006506  0.177810  0.429384  1
  O  O17  1  0.071771  0.408732  0.564713  1
  O  O18  1  0.172037  0.682755  0.663842  1
  O  O19  1  0.220700  0.880995  0.360779  1
  O  O20  1  0.142782  0.432013  0.064856  1
  O  O21  1  0.065181  0.025657  0.045363  1
  O  O22  1  0.132712  0.233789  0.951891  1
  O  O23  1  0.363300  0.617910  0.100827  1
  O  O24  1  0.420531  0.823505  0.927957  1
  O  O25  1  0.326462  0.304615  0.386833  1
  O  O26  1  0.271734  0.088384  0.644766  1
  O  O27  1  0.413507  0.550920  0.587967  1
  O  O28  1  0.551002  0.972850  0.542386  1
  O  O29  1  0.517990  0.763384  0.453739  1
  O  O30  1  0.482010  0.236616  0.953739  1
  O  O31  1  0.448998  0.027150  0.042386  1
  O  O32  1  0.586493  0.449080  0.087967  1
  O  O33  1  0.728266  0.911616  0.144766  1
  O  O34  1  0.673538  0.695385  0.886833  1
  O  O35  1  0.579469  0.176495  0.427957  1
  O  O36  1  0.636700  0.382090  0.600827  1
  O  O37  1  0.867288  0.766211  0.451891  1
  O  O38  1  0.934819  0.974343  0.545363  1
  O  O39  1  0.857218  0.567987  0.564856  1
  O  O40  1  0.779300  0.119005  0.860779  1
  O  O41  1  0.827963  0.317246  0.163842  1
  O  O42  1  0.928229  0.591268  0.064713  1
  O  O43  1  0.993494  0.822190  0.929384  1
