# generated using pymatgen
data_Tm2WO6
_symmetry_space_group_name_H-M   'P 1'
_cell_length_a   5.34113063
_cell_length_b   9.78324836
_cell_length_c   9.78324836
_cell_angle_alpha   68.29995391
_cell_angle_beta   75.83290734
_cell_angle_gamma   75.83290734
_symmetry_Int_Tables_number   1
_chemical_formula_structural   Tm2WO6
_chemical_formula_sum   'Tm8 W4 O24'
_cell_volume   453.73423280
_cell_formula_units_Z   4
loop_
 _symmetry_equiv_pos_site_id
 _symmetry_equiv_pos_as_xyz
  1  'x, y, z'
loop_
 _atom_site_type_symbol
 _atom_site_label
 _atom_site_symmetry_multiplicity
 _atom_site_fract_x
 _atom_site_fract_y
 _atom_site_fract_z
 _atom_site_occupancy
  Tm  Tm0  1  0.618463  0.055120  0.283493  1
  Tm  Tm1  1  0.118463  0.283493  0.055120  1
  Tm  Tm2  1  0.750000  0.634836  0.365165  1
  Tm  Tm3  1  0.750000  0.104090  0.895910  1
  Tm  Tm4  1  0.250000  0.895910  0.104090  1
  Tm  Tm5  1  0.250000  0.365165  0.634836  1
  Tm  Tm6  1  0.881537  0.716507  0.944880  1
  Tm  Tm7  1  0.381537  0.944880  0.716507  1
  W  W8  1  0.932366  0.199357  0.493586  1
  W  W9  1  0.432366  0.493586  0.199357  1
  W  W10  1  0.567634  0.506414  0.800643  1
  W  W11  1  0.067634  0.800643  0.506414  1
  O  O12  1  0.921991  0.107766  0.074279  1
  O  O13  1  0.421991  0.074279  0.107766  1
  O  O14  1  0.742419  0.473800  0.058656  1
  O  O15  1  0.852505  0.214955  0.313305  1
  O  O16  1  0.242419  0.058656  0.473800  1
  O  O17  1  0.352505  0.313305  0.214955  1
  O  O18  1  0.609157  0.176860  0.621010  1
  O  O19  1  0.109157  0.621010  0.176860  1
  O  O20  1  0.981190  0.390034  0.455023  1
  O  O21  1  0.577898  0.690157  0.158773  1
  O  O22  1  0.481190  0.455023  0.390034  1
  O  O23  1  0.077898  0.158773  0.690157  1
  O  O24  1  0.922102  0.841227  0.309843  1
  O  O25  1  0.518810  0.544977  0.609966  1
  O  O26  1  0.422102  0.309843  0.841227  1
  O  O27  1  0.018810  0.609966  0.544977  1
  O  O28  1  0.890843  0.378990  0.823140  1
  O  O29  1  0.390843  0.823140  0.378990  1
  O  O30  1  0.647495  0.686695  0.785045  1
  O  O31  1  0.757581  0.941344  0.526200  1
  O  O32  1  0.147495  0.785045  0.686695  1
  O  O33  1  0.257581  0.526200  0.941344  1
  O  O34  1  0.578009  0.925721  0.892234  1
  O  O35  1  0.078009  0.892234  0.925721  1
