# generated using pymatgen
data_Tm4Zr3O12
_symmetry_space_group_name_H-M   'P 1'
_cell_length_a   6.40383178
_cell_length_b   6.37608563
_cell_length_c   12.78025439
_cell_angle_alpha   99.40036579
_cell_angle_beta   99.14360358
_cell_angle_gamma   99.35116819
_symmetry_Int_Tables_number   1
_chemical_formula_structural   Tm4Zr3O12
_chemical_formula_sum   'Tm8 Zr6 O24'
_cell_volume   498.68312424
_cell_formula_units_Z   2
loop_
 _symmetry_equiv_pos_site_id
 _symmetry_equiv_pos_as_xyz
  1  'x, y, z'
loop_
 _atom_site_type_symbol
 _atom_site_label
 _atom_site_symmetry_multiplicity
 _atom_site_fract_x
 _atom_site_fract_y
 _atom_site_fract_z
 _atom_site_occupancy
  Tm  Tm0  1  0.137468  0.609553  0.653476  1
  Tm  Tm1  1  0.390942  0.687482  0.930816  1
  Tm  Tm2  1  0.389664  0.697752  0.430718  1
  Tm  Tm3  1  0.310225  0.140337  0.303819  1
  Tm  Tm4  1  0.609058  0.312518  0.569184  1
  Tm  Tm5  1  0.689775  0.859663  0.196181  1
  Tm  Tm6  1  0.862532  0.390447  0.846524  1
  Tm  Tm7  1  0.610336  0.302248  0.069282  1
  Zr  Zr8  1  0.006145  0.006375  0.501943  1
  Zr  Zr9  1  0.142960  0.610117  0.155982  1
  Zr  Zr10  1  0.993855  0.993625  0.998057  1
  Zr  Zr11  1  0.318689  0.143261  0.804872  1
  Zr  Zr12  1  0.681311  0.856739  0.695128  1
  Zr  Zr13  1  0.857040  0.389883  0.344018  1
  O  O14  1  0.057054  0.679205  0.962655  1
  O  O15  1  0.095782  0.957328  0.661654  1
  O  O16  1  0.042965  0.680468  0.454412  1
  O  O17  1  0.080045  0.928693  0.157594  1
  O  O18  1  0.180419  0.413679  0.787192  1
  O  O19  1  0.311494  0.078081  0.961625  1
  O  O20  1  0.424736  0.825564  0.784562  1
  O  O21  1  0.171777  0.430143  0.286893  1
  O  O22  1  0.433094  0.591130  0.591473  1
  O  O23  1  0.319741  0.077388  0.472167  1
  O  O24  1  0.566906  0.408870  0.908527  1
  O  O25  1  0.409260  0.816117  0.281736  1
  O  O26  1  0.575264  0.174436  0.715438  1
  O  O27  1  0.418547  0.574950  0.091216  1
  O  O28  1  0.688506  0.921919  0.538375  1
  O  O29  1  0.581453  0.425050  0.408784  1
  O  O30  1  0.819581  0.586321  0.712808  1
  O  O31  1  0.590740  0.183883  0.218264  1
  O  O32  1  0.680259  0.922612  0.027833  1
  O  O33  1  0.828223  0.569857  0.213107  1
  O  O34  1  0.904218  0.042672  0.838346  1
  O  O35  1  0.942946  0.320795  0.537345  1
  O  O36  1  0.919955  0.071307  0.342406  1
  O  O37  1  0.957035  0.319532  0.045588  1
