# generated using pymatgen
data_V5CoO15
_symmetry_space_group_name_H-M   'P 1'
_cell_length_a   9.22100539
_cell_length_b   9.86254185
_cell_length_c   9.86161660
_cell_angle_alpha   56.95427428
_cell_angle_beta   62.17941852
_cell_angle_gamma   62.28377288
_symmetry_Int_Tables_number   1
_chemical_formula_structural   V5CoO15
_chemical_formula_sum   'V10 Co2 O30'
_cell_volume   637.47944473
_cell_formula_units_Z   2
loop_
 _symmetry_equiv_pos_site_id
 _symmetry_equiv_pos_as_xyz
  1  'x, y, z'
loop_
 _atom_site_type_symbol
 _atom_site_label
 _atom_site_symmetry_multiplicity
 _atom_site_fract_x
 _atom_site_fract_y
 _atom_site_fract_z
 _atom_site_occupancy
  V  V0  1  0.000087  0.655613  0.313293  1
  V  V1  1  0.224625  0.230456  0.365925  1
  V  V2  1  0.277311  0.638588  0.763935  1
  V  V3  1  0.481240  0.693074  0.358390  1
  V  V4  1  0.531786  0.307018  0.641773  1
  V  V5  1  0.680884  0.361084  0.235665  1
  V  V6  1  0.539216  0.347863  0.965502  1
  V  V7  1  0.851810  0.653875  0.034005  1
  V  V8  1  0.821013  0.770046  0.633635  1
  V  V9  1  0.969350  0.345130  0.686539  1
  Co  Co10  1  0.637962  0.982400  0.343499  1
  Co  Co11  1  0.962021  0.018443  0.657214  1
  O  O12  1  0.080476  0.123453  0.429245  1
  O  O13  1  0.090933  0.402017  0.438730  1
  O  O14  1  0.019524  0.133276  0.709109  1
  O  O15  1  0.299864  0.312893  0.154942  1
  O  O16  1  0.080071  0.309500  0.794617  1
  O  O17  1  0.183300  0.690895  0.204327  1
  O  O18  1  0.411219  0.098778  0.425953  1
  O  O19  1  0.630529  0.111640  0.137374  1
  O  O20  1  0.089419  0.587505  0.888157  1
  O  O21  1  0.299941  0.815905  0.319791  1
  O  O22  1  0.432106  0.186706  0.679108  1
  O  O23  1  0.564320  0.411215  0.113264  1
  O  O24  1  0.223317  0.846906  0.669847  1
  O  O25  1  0.486428  0.280688  0.869061  1
  O  O26  1  0.396574  0.552567  0.605040  1
  O  O27  1  0.557800  0.446788  0.394712  1
  O  O28  1  0.635776  0.719375  0.130926  1
  O  O29  1  0.741971  0.152463  0.329471  1
  O  O30  1  0.420161  0.567038  0.882235  1
  O  O31  1  0.573763  0.793796  0.380028  1
  O  O32  1  0.745638  0.203099  0.622649  1
  O  O33  1  0.868766  0.433910  0.114441  1
  O  O34  1  0.633707  0.878573  0.570231  1
  O  O35  1  0.746354  0.363302  0.821622  1
  O  O36  1  0.930199  0.634320  0.180289  1
  O  O37  1  0.766455  0.688243  0.844279  1
  O  O38  1  0.862529  0.866742  0.290289  1
  O  O39  1  0.930239  0.597960  0.561681  1
  O  O40  1  0.937756  0.900305  0.574711  1
  O  O41  1  0.878959  0.886549  0.864497  1
