# generated using pymatgen
data_V5W3O20
_symmetry_space_group_name_H-M   'P 1'
_cell_length_a   7.61958928
_cell_length_b   12.98816913
_cell_length_c   7.82732454
_cell_angle_alpha   89.57313307
_cell_angle_beta   89.91058664
_cell_angle_gamma   72.89962571
_symmetry_Int_Tables_number   1
_chemical_formula_structural   V5W3O20
_chemical_formula_sum   'V10 W6 O40'
_cell_volume   740.36123342
_cell_formula_units_Z   2
loop_
 _symmetry_equiv_pos_site_id
 _symmetry_equiv_pos_as_xyz
  1  'x, y, z'
loop_
 _atom_site_type_symbol
 _atom_site_label
 _atom_site_symmetry_multiplicity
 _atom_site_fract_x
 _atom_site_fract_y
 _atom_site_fract_z
 _atom_site_occupancy
  V  V0  1  0.328324  0.844160  0.544838  1
  V  V1  1  0.820447  0.858781  0.538365  1
  V  V2  1  0.325741  0.847950  0.040281  1
  V  V3  1  0.173562  0.654774  0.954575  1
  V  V4  1  0.164050  0.660056  0.465022  1
  V  V5  1  0.826438  0.345226  0.545425  1
  V  V6  1  0.835950  0.339944  0.034978  1
  V  V7  1  0.671676  0.155840  0.955162  1
  V  V8  1  0.179553  0.141219  0.961635  1
  V  V9  1  0.674259  0.152050  0.459719  1
  W  W10  1  0.822999  0.856080  0.030803  1
  W  W11  1  0.676776  0.642883  0.976034  1
  W  W12  1  0.677318  0.646951  0.474844  1
  W  W13  1  0.323224  0.357117  0.523966  1
  W  W14  1  0.322682  0.353049  0.025156  1
  W  W15  1  0.177001  0.143920  0.469197  1
  O  O16  1  0.323990  0.848550  0.757591  1
  O  O17  1  0.826315  0.847779  0.755198  1
  O  O18  1  0.323982  0.852122  0.252622  1
  O  O19  1  0.823670  0.849358  0.258824  1
  O  O20  1  0.603136  0.812435  0.506459  1
  O  O21  1  0.597071  0.814364  0.997801  1
  O  O22  1  0.087002  0.815689  0.999086  1
  O  O23  1  0.086341  0.811798  0.502652  1
  O  O24  1  0.409097  0.681741  0.497662  1
  O  O25  1  0.916316  0.671314  0.498266  1
  O  O26  1  0.413954  0.681746  0.003659  1
  O  O27  1  0.905814  0.679541  0.000673  1
  O  O28  1  0.675989  0.646359  0.742768  1
  O  O29  1  0.676311  0.650746  0.240965  1
  O  O30  1  0.177784  0.648548  0.743728  1
  O  O31  1  0.173705  0.653530  0.255303  1
  O  O32  1  0.747234  0.495811  0.999695  1
  O  O33  1  0.745787  0.500631  0.494681  1
  O  O34  1  0.252766  0.504189  0.500305  1
  O  O35  1  0.254213  0.499369  0.005319  1
  O  O36  1  0.822216  0.351452  0.756272  1
  O  O37  1  0.826295  0.346470  0.244697  1
  O  O38  1  0.324011  0.353641  0.757232  1
  O  O39  1  0.323689  0.349254  0.259035  1
  O  O40  1  0.590903  0.318259  0.002338  1
  O  O41  1  0.083684  0.328686  0.001734  1
  O  O42  1  0.094186  0.320459  0.499327  1
  O  O43  1  0.586046  0.318254  0.496341  1
  O  O44  1  0.912998  0.184311  0.500914  1
  O  O45  1  0.913659  0.188202  0.997348  1
  O  O46  1  0.396864  0.187565  0.993541  1
  O  O47  1  0.402929  0.185636  0.502199  1
  O  O48  1  0.173685  0.152221  0.744802  1
  O  O49  1  0.676010  0.151450  0.742409  1
  O  O50  1  0.176330  0.150642  0.241176  1
  O  O51  1  0.676018  0.147878  0.247378  1
  O  O52  1  0.752946  0.993774  0.507182  1
  O  O53  1  0.249819  0.999655  0.498676  1
  O  O54  1  0.247054  0.006226  0.992818  1
  O  O55  1  0.750181  0.000345  0.001324  1
