# generated using pymatgen
data_V11NiO18
_symmetry_space_group_name_H-M   'P 1'
_cell_length_a   5.55317706
_cell_length_b   8.86056864
_cell_length_c   7.50771375
_cell_angle_alpha   66.95065172
_cell_angle_beta   96.35789840
_cell_angle_gamma   74.54599139
_symmetry_Int_Tables_number   1
_chemical_formula_structural   V11NiO18
_chemical_formula_sum   'V11 Ni1 O18'
_cell_volume   317.85231966
_cell_formula_units_Z   1
loop_
 _symmetry_equiv_pos_site_id
 _symmetry_equiv_pos_as_xyz
  1  'x, y, z'
loop_
 _atom_site_type_symbol
 _atom_site_label
 _atom_site_symmetry_multiplicity
 _atom_site_fract_x
 _atom_site_fract_y
 _atom_site_fract_z
 _atom_site_occupancy
  V  V0  1  0.298762  0.000497  0.352410  1
  V  V1  1  0.701850  0.002059  0.148726  1
  V  V2  1  0.636904  0.330557  0.187379  1
  V  V3  1  0.295885  0.002148  0.849309  1
  V  V4  1  0.698136  0.000151  0.649659  1
  V  V5  1  0.636071  0.334957  0.677659  1
  V  V6  1  0.372873  0.660888  0.322607  1
  V  V7  1  0.965189  0.665225  0.020286  1
  V  V8  1  0.034450  0.333189  0.984065  1
  V  V9  1  0.968974  0.667138  0.516611  1
  V  V10  1  0.368538  0.666858  0.817476  1
  Ni  Ni11  1  0.041835  0.331359  0.479688  1
  O  O12  1  0.396711  0.203600  0.146952  1
  O  O13  1  0.301220  0.095003  0.550771  1
  O  O14  1  0.935711  0.128237  0.186975  1
  O  O15  1  0.374314  0.565716  0.126260  1
  O  O16  1  0.033038  0.228862  0.791381  1
  O  O17  1  0.721348  0.232751  0.481148  1
  O  O18  1  0.930574  0.438182  0.177980  1
  O  O19  1  0.600272  0.102900  0.853485  1
  O  O20  1  0.268292  0.469067  0.513181  1
  O  O21  1  0.711988  0.551901  0.470845  1
  O  O22  1  0.399636  0.889732  0.153833  1
  O  O23  1  0.066717  0.567293  0.813396  1
  O  O24  1  0.270026  0.766035  0.516112  1
  O  O25  1  0.977090  0.766685  0.216886  1
  O  O26  1  0.629765  0.435119  0.877993  1
  O  O27  1  0.703936  0.899325  0.448843  1
  O  O28  1  0.062262  0.867221  0.816220  1
  O  O29  1  0.597634  0.797343  0.851863  1
