# generated using pymatgen
data_V6AgO15
_symmetry_space_group_name_H-M   'P 1'
_cell_length_a   7.99787302
_cell_length_b   7.31807602
_cell_length_c   10.22574715
_cell_angle_alpha   90.00058134
_cell_angle_beta   109.22022808
_cell_angle_gamma   76.77534385
_symmetry_Int_Tables_number   1
_chemical_formula_structural   V6AgO15
_chemical_formula_sum   'V12 Ag2 O30'
_cell_volume   548.30642295
_cell_formula_units_Z   2
loop_
 _symmetry_equiv_pos_site_id
 _symmetry_equiv_pos_as_xyz
  1  'x, y, z'
loop_
 _atom_site_type_symbol
 _atom_site_label
 _atom_site_symmetry_multiplicity
 _atom_site_fract_x
 _atom_site_fract_y
 _atom_site_fract_z
 _atom_site_occupancy
  V  V0  1  0.325120  0.168649  0.899173  1
  V  V1  1  0.325216  0.668739  0.899330  1
  V  V2  1  0.424328  0.644001  0.589730  1
  V  V3  1  0.424163  0.143886  0.589889  1
  V  V4  1  0.232350  0.441930  0.117876  1
  V  V5  1  0.233765  0.941586  0.119410  1
  V  V6  1  0.766235  0.558414  0.880590  1
  V  V7  1  0.767650  0.058070  0.882124  1
  V  V8  1  0.575837  0.356114  0.410111  1
  V  V9  1  0.575672  0.855999  0.410270  1
  V  V10  1  0.674784  0.831261  0.100670  1
  V  V11  1  0.674880  0.331351  0.100827  1
  Ag  Ag12  1  0.007123  0.998204  0.597291  1
  Ag  Ag13  1  0.992877  0.501796  0.402709  1
  O  O14  1  0.124039  0.214634  0.778728  1
  O  O15  1  0.124160  0.723313  0.778763  1
  O  O16  1  0.370666  0.407258  0.946130  1
  O  O17  1  0.371534  0.907198  0.945555  1
  O  O18  1  0.200802  0.699905  0.527002  1
  O  O19  1  0.200623  0.199734  0.526894  1
  O  O20  1  0.999312  0.000187  0.999460  1
  O  O21  1  0.000688  0.499813  0.000540  1
  O  O22  1  0.215556  0.446126  0.274129  1
  O  O23  1  0.216202  0.946003  0.273360  1
  O  O24  1  0.473359  0.131566  0.777325  1
  O  O25  1  0.473712  0.631679  0.777538  1
  O  O26  1  0.483956  0.378988  0.573040  1
  O  O27  1  0.484915  0.878792  0.573500  1
  O  O28  1  0.267014  0.183289  0.076890  1
  O  O29  1  0.266938  0.683240  0.076872  1
  O  O30  1  0.733062  0.816760  0.923128  1
  O  O31  1  0.732986  0.316711  0.923110  1
  O  O32  1  0.516044  0.121012  0.426959  1
  O  O33  1  0.515085  0.621208  0.426500  1
  O  O34  1  0.526641  0.368434  0.222675  1
  O  O35  1  0.526288  0.868321  0.222462  1
  O  O36  1  0.784444  0.053874  0.725871  1
  O  O37  1  0.783798  0.553997  0.726640  1
  O  O38  1  0.799377  0.300266  0.473106  1
  O  O39  1  0.799198  0.800095  0.472998  1
  O  O40  1  0.629334  0.092742  0.053870  1
  O  O41  1  0.628466  0.592802  0.054445  1
  O  O42  1  0.875961  0.285366  0.221272  1
  O  O43  1  0.875840  0.776687  0.221237  1
