# generated using pymatgen
data_CrHgO4
_symmetry_space_group_name_H-M   'P 1'
_cell_length_a   5.41356239
_cell_length_b   7.24922531
_cell_length_c   5.41356237
_cell_angle_alpha   89.99987858
_cell_angle_beta   115.29802999
_cell_angle_gamma   90.00012143
_symmetry_Int_Tables_number   1
_chemical_formula_structural   CrHgO4
_chemical_formula_sum   'Cr2 Hg2 O8'
_cell_volume   192.07596956
_cell_formula_units_Z   2
loop_
 _symmetry_equiv_pos_site_id
 _symmetry_equiv_pos_as_xyz
  1  'x, y, z'
loop_
 _atom_site_type_symbol
 _atom_site_label
 _atom_site_symmetry_multiplicity
 _atom_site_fract_x
 _atom_site_fract_y
 _atom_site_fract_z
 _atom_site_occupancy
  Cr  Cr0  1  0.357102  0.250001  0.642898  1
  Cr  Cr1  1  0.642917  0.750000  0.357083  1
  Hg  Hg2  1  -0.000002  0.499998  0.000002  1
  Hg  Hg3  1  0.999998  0.000002  0.000002  1
  O  O4  1  0.778015  0.749999  0.706485  1
  O  O5  1  0.221998  0.250001  0.293517  1
  O  O6  1  0.706483  0.250001  0.778002  1
  O  O7  1  0.293515  0.749999  0.221985  1
  O  O8  1  0.745520  0.935391  0.254480  1
  O  O9  1  0.254468  0.435379  0.745532  1
  O  O10  1  0.254466  0.064619  0.745534  1
  O  O11  1  0.745520  0.564609  0.254480  1
