# generated using pymatgen
data_V3CdO7
_symmetry_space_group_name_H-M   'P 1'
_cell_length_a   5.37713476
_cell_length_b   10.65375197
_cell_length_c   10.46293977
_cell_angle_alpha   90.00000000
_cell_angle_beta   90.00000000
_cell_angle_gamma   90.00000000
_symmetry_Int_Tables_number   1
_chemical_formula_structural   V3CdO7
_chemical_formula_sum   'V12 Cd4 O28'
_cell_volume   599.38687365
_cell_formula_units_Z   4
loop_
 _symmetry_equiv_pos_site_id
 _symmetry_equiv_pos_as_xyz
  1  'x, y, z'
loop_
 _atom_site_type_symbol
 _atom_site_label
 _atom_site_symmetry_multiplicity
 _atom_site_fract_x
 _atom_site_fract_y
 _atom_site_fract_z
 _atom_site_occupancy
  V  V0  1  0.216228  0.813927  0.023568  1
  V  V1  1  0.716228  0.686073  0.976432  1
  V  V2  1  0.283772  0.313927  0.476432  1
  V  V3  1  0.783772  0.186073  0.523568  1
  V  V4  1  0.783772  0.186073  0.976432  1
  V  V5  1  0.283772  0.313927  0.023568  1
  V  V6  1  0.716228  0.686073  0.523568  1
  V  V7  1  0.216228  0.813927  0.476432  1
  V  V8  1  0.707549  0.785671  0.250000  1
  V  V9  1  0.207549  0.714329  0.750000  1
  V  V10  1  0.792451  0.285671  0.250000  1
  V  V11  1  0.292451  0.214329  0.750000  1
  Cd  Cd12  1  0.187606  0.578366  0.250000  1
  Cd  Cd13  1  0.687606  0.921634  0.750000  1
  Cd  Cd14  1  0.312394  0.078366  0.250000  1
  Cd  Cd15  1  0.812394  0.421634  0.750000  1
  O  O16  1  0.475542  0.719561  0.118306  1
  O  O17  1  0.975542  0.780439  0.881694  1
  O  O18  1  0.024458  0.219561  0.381694  1
  O  O19  1  0.524458  0.280439  0.618306  1
  O  O20  1  0.524458  0.280439  0.881694  1
  O  O21  1  0.024458  0.219561  0.118306  1
  O  O22  1  0.975542  0.780439  0.618306  1
  O  O23  1  0.475542  0.719561  0.381694  1
  O  O24  1  0.951571  0.722846  0.119216  1
  O  O25  1  0.451571  0.777154  0.880784  1
  O  O26  1  0.548429  0.222846  0.380784  1
  O  O27  1  0.048429  0.277154  0.619216  1
  O  O28  1  0.048429  0.277154  0.880784  1
  O  O29  1  0.548429  0.222846  0.119216  1
  O  O30  1  0.451571  0.777154  0.619216  1
  O  O31  1  0.951571  0.722846  0.380784  1
  O  O32  1  0.230992  0.960942  0.077017  1
  O  O33  1  0.730992  0.539058  0.922983  1
  O  O34  1  0.269008  0.460942  0.422983  1
  O  O35  1  0.769008  0.039058  0.577017  1
  O  O36  1  0.769008  0.039058  0.922983  1
  O  O37  1  0.269008  0.460942  0.077017  1
  O  O38  1  0.730992  0.539058  0.577017  1
  O  O39  1  0.230992  0.960942  0.422983  1
  O  O40  1  0.689846  0.940988  0.250000  1
  O  O41  1  0.189846  0.559012  0.750000  1
  O  O42  1  0.810154  0.440988  0.250000  1
  O  O43  1  0.310154  0.059012  0.750000  1
