# generated using pymatgen
data_V3(WO6)2
_symmetry_space_group_name_H-M   'P 1'
_cell_length_a   9.32927094
_cell_length_b   13.19999595
_cell_length_c   9.41732248
_cell_angle_alpha   90.00000000
_cell_angle_beta   90.00000000
_cell_angle_gamma   90.10175656
_symmetry_Int_Tables_number   1
_chemical_formula_structural   V3(WO6)2
_chemical_formula_sum   'V12 W8 O48'
_cell_volume   1159.70695461
_cell_formula_units_Z   4
loop_
 _symmetry_equiv_pos_site_id
 _symmetry_equiv_pos_as_xyz
  1  'x, y, z'
loop_
 _atom_site_type_symbol
 _atom_site_label
 _atom_site_symmetry_multiplicity
 _atom_site_fract_x
 _atom_site_fract_y
 _atom_site_fract_z
 _atom_site_occupancy
  V  V0  1  0.028781  0.496100  0.250456  1
  V  V1  1  0.112910  0.856272  0.389265  1
  V  V2  1  0.114703  0.143327  0.106758  1
  V  V3  1  0.387090  0.643728  0.889265  1
  V  V4  1  0.385297  0.356673  0.606758  1
  V  V5  1  0.471219  0.003900  0.750456  1
  V  V6  1  0.528781  0.996100  0.249544  1
  V  V7  1  0.614703  0.643327  0.393242  1
  V  V8  1  0.612910  0.356272  0.110735  1
  V  V9  1  0.885297  0.856673  0.893242  1
  V  V10  1  0.887090  0.143728  0.610735  1
  V  V11  1  0.971219  0.503900  0.749544  1
  W  W12  1  0.246618  0.883614  0.029188  1
  W  W13  1  0.253382  0.616386  0.529188  1
  W  W14  1  0.256275  0.382308  0.967256  1
  W  W15  1  0.243725  0.117692  0.467256  1
  W  W16  1  0.756275  0.882308  0.532744  1
  W  W17  1  0.743725  0.617692  0.032744  1
  W  W18  1  0.746618  0.383614  0.470812  1
  W  W19  1  0.753382  0.116386  0.970812  1
  O  O20  1  0.081803  0.425402  0.849475  1
  O  O21  1  0.080607  0.868023  0.916402  1
  O  O22  1  0.075230  0.588966  0.653357  1
  O  O23  1  0.081730  0.146107  0.580392  1
  O  O24  1  0.131139  0.570388  0.366132  1
  O  O25  1  0.153044  0.843488  0.199053  1
  O  O26  1  0.176418  0.979848  0.443811  1
  O  O27  1  0.176022  0.250963  0.001561  1
  O  O28  1  0.157294  0.160984  0.295949  1
  O  O29  1  0.143012  0.429579  0.136874  1
  O  O30  1  0.191587  0.751375  0.488579  1
  O  O31  1  0.308413  0.748625  0.988579  1
  O  O32  1  0.197106  0.024901  0.057433  1
  O  O33  1  0.302894  0.475099  0.557433  1
  O  O34  1  0.356988  0.070421  0.636874  1
  O  O35  1  0.342706  0.339016  0.795949  1
  O  O36  1  0.323582  0.520152  0.943811  1
  O  O37  1  0.323978  0.249037  0.501561  1
  O  O38  1  0.346956  0.656512  0.699053  1
  O  O39  1  0.368861  0.929612  0.866132  1
  O  O40  1  0.424770  0.911034  0.153357  1
  O  O41  1  0.419393  0.631977  0.416402  1
  O  O42  1  0.418270  0.353893  0.080392  1
  O  O43  1  0.418197  0.074598  0.349475  1
  O  O44  1  0.581803  0.925402  0.650525  1
  O  O45  1  0.581730  0.646107  0.919608  1
  O  O46  1  0.580607  0.368023  0.583598  1
  O  O47  1  0.575230  0.088966  0.846643  1
  O  O48  1  0.631139  0.070388  0.133868  1
  O  O49  1  0.653044  0.343488  0.300947  1
  O  O50  1  0.676022  0.750963  0.498439  1
  O  O51  1  0.676418  0.479848  0.056189  1
  O  O52  1  0.657294  0.660984  0.204051  1
  O  O53  1  0.643012  0.929579  0.363126  1
  O  O54  1  0.697106  0.524901  0.442567  1
  O  O55  1  0.802894  0.975099  0.942567  1
  O  O56  1  0.691587  0.251375  0.011421  1
  O  O57  1  0.808413  0.248625  0.511421  1
  O  O58  1  0.856988  0.570421  0.863126  1
  O  O59  1  0.842706  0.839016  0.704051  1
  O  O60  1  0.823978  0.749037  0.998439  1
  O  O61  1  0.823582  0.020152  0.556189  1
  O  O62  1  0.846956  0.156512  0.800947  1
  O  O63  1  0.868861  0.429612  0.633868  1
  O  O64  1  0.918270  0.853893  0.419608  1
  O  O65  1  0.924770  0.411034  0.346643  1
  O  O66  1  0.919393  0.131977  0.083598  1
  O  O67  1  0.918197  0.574598  0.150525  1
