# generated using pymatgen
data_V3ZnO8
_symmetry_space_group_name_H-M   'P 1'
_cell_length_a   8.61748087
_cell_length_b   9.81149681
_cell_length_c   9.81149704
_cell_angle_alpha   61.15874365
_cell_angle_beta   63.95019612
_cell_angle_gamma   63.95019596
_symmetry_Int_Tables_number   1
_chemical_formula_structural   V3ZnO8
_chemical_formula_sum   'V12 Zn4 O32'
_cell_volume   625.01938979
_cell_formula_units_Z   4
loop_
 _symmetry_equiv_pos_site_id
 _symmetry_equiv_pos_as_xyz
  1  'x, y, z'
loop_
 _atom_site_type_symbol
 _atom_site_label
 _atom_site_symmetry_multiplicity
 _atom_site_fract_x
 _atom_site_fract_y
 _atom_site_fract_z
 _atom_site_occupancy
  V  V0  1  0.776337  0.259813  0.143812  1
  V  V1  1  0.179962  0.740187  0.856188  1
  V  V2  1  0.276337  0.143812  0.259813  1
  V  V3  1  0.679962  0.856188  0.740187  1
  V  V4  1  0.940471  0.510011  0.187557  1
  V  V5  1  0.638038  0.489989  0.812443  1
  V  V6  1  0.440471  0.187557  0.510011  1
  V  V7  1  0.138038  0.812443  0.489989  1
  V  V8  1  0.462382  0.189044  0.854767  1
  V  V9  1  0.506192  0.810956  0.145233  1
  V  V10  1  0.962382  0.854767  0.189044  1
  V  V11  1  0.006192  0.145233  0.810956  1
  Zn  Zn12  1  0.328142  0.516533  0.174071  1
  Zn  Zn13  1  0.018746  0.483467  0.825929  1
  Zn  Zn14  1  0.828142  0.174071  0.516533  1
  Zn  Zn15  1  0.518746  0.825929  0.483467  1
  O  O16  1  0.055596  0.642952  0.192965  1
  O  O17  1  0.891513  0.357048  0.807035  1
  O  O18  1  0.555596  0.192965  0.642952  1
  O  O19  1  0.391513  0.807035  0.357048  1
  O  O20  1  0.200063  0.352354  0.181477  1
  O  O21  1  0.733894  0.647646  0.818523  1
  O  O22  1  0.700063  0.181477  0.352354  1
  O  O23  1  0.233894  0.818523  0.647646  1
  O  O24  1  0.847077  0.399713  0.378594  1
  O  O25  1  0.625384  0.600287  0.621406  1
  O  O26  1  0.347077  0.378594  0.399713  1
  O  O27  1  0.125384  0.621406  0.600287  1
  O  O28  1  0.248769  0.298471  0.862017  1
  O  O29  1  0.409257  0.701529  0.137983  1
  O  O30  1  0.748769  0.862017  0.298471  1
  O  O31  1  0.909257  0.137983  0.701529  1
  O  O32  1  0.220895  0.151186  0.696921  1
  O  O33  1  0.069002  0.848814  0.303079  1
  O  O34  1  0.720895  0.696921  0.151186  1
  O  O35  1  0.569002  0.303079  0.848814  1
  O  O36  1  0.542188  0.927104  0.620045  1
  O  O37  1  0.089338  0.072896  0.379955  1
  O  O38  1  0.042188  0.620045  0.927104  1
  O  O39  1  0.589338  0.379955  0.072896  1
  O  O40  1  0.568246  0.938260  0.902782  1
  O  O41  1  0.409288  0.061740  0.097218  1
  O  O42  1  0.068246  0.902782  0.938260  1
  O  O43  1  0.909288  0.097218  0.061740  1
  O  O44  1  0.877973  0.909201  0.615869  1
  O  O45  1  0.403044  0.090799  0.384131  1
  O  O46  1  0.377973  0.615869  0.909201  1
  O  O47  1  0.903044  0.384131  0.090799  1
