# generated using pymatgen
data_V16FeO41
_symmetry_space_group_name_H-M   'P 1'
_cell_length_a   11.71014592
_cell_length_b   14.63760644
_cell_length_c   4.55702122
_cell_angle_alpha   90.00000000
_cell_angle_beta   90.00000000
_cell_angle_gamma   90.00000000
_symmetry_Int_Tables_number   1
_chemical_formula_structural   V16FeO41
_chemical_formula_sum   'V16 Fe1 O41'
_cell_volume   781.11220520
_cell_formula_units_Z   1
loop_
 _symmetry_equiv_pos_site_id
 _symmetry_equiv_pos_as_xyz
  1  'x, y, z'
loop_
 _atom_site_type_symbol
 _atom_site_label
 _atom_site_symmetry_multiplicity
 _atom_site_fract_x
 _atom_site_fract_y
 _atom_site_fract_z
 _atom_site_occupancy
  V  V0  1  0.102427  0.312500  0.899770  1
  V  V1  1  0.102527  0.064719  0.899555  1
  V  V2  1  0.102527  0.560281  0.899555  1
  V  V3  1  0.100421  0.812500  0.902125  1
  V  V4  1  0.397473  0.064719  0.899555  1
  V  V5  1  0.397573  0.312500  0.899770  1
  V  V6  1  0.397473  0.560281  0.899555  1
  V  V7  1  0.399579  0.812500  0.902125  1
  V  V8  1  0.594302  0.944867  0.113923  1
  V  V9  1  0.601026  0.189093  0.096366  1
  V  V10  1  0.601026  0.435907  0.096366  1
  V  V11  1  0.594302  0.680133  0.113923  1
  V  V12  1  0.905698  0.944867  0.113923  1
  V  V13  1  0.898974  0.189093  0.096366  1
  V  V14  1  0.898974  0.435907  0.096366  1
  V  V15  1  0.905698  0.680133  0.113923  1
  Fe  Fe16  1  0.750000  0.812500  0.036710  1
  O  O17  1  0.070410  0.188909  0.002218  1
  O  O18  1  0.070410  0.436091  0.002218  1
  O  O19  1  0.069930  0.938284  0.997872  1
  O  O20  1  0.069930  0.686716  0.997872  1
  O  O21  1  0.108924  0.312500  0.547782  1
  O  O22  1  0.110973  0.559862  0.547721  1
  O  O23  1  0.110973  0.065138  0.547721  1
  O  O24  1  0.106363  0.812500  0.550486  1
  O  O25  1  0.250000  0.561254  0.019841  1
  O  O26  1  0.250000  0.063746  0.019841  1
  O  O27  1  0.250000  0.312500  0.016957  1
  O  O28  1  0.250000  0.812500  0.011517  1
  O  O29  1  0.389027  0.065138  0.547721  1
  O  O30  1  0.391076  0.312500  0.547782  1
  O  O31  1  0.389027  0.559862  0.547721  1
  O  O32  1  0.393637  0.812500  0.550486  1
  O  O33  1  0.429590  0.436091  0.002218  1
  O  O34  1  0.429590  0.188909  0.002218  1
  O  O35  1  0.430070  0.686716  0.997872  1
  O  O36  1  0.430070  0.938284  0.997872  1
  O  O37  1  0.573261  0.812500  0.008976  1
  O  O38  1  0.566079  0.066901  0.989944  1
  O  O39  1  0.567933  0.312500  0.995291  1
  O  O40  1  0.566079  0.558099  0.989944  1
  O  O41  1  0.593261  0.951966  0.465003  1
  O  O42  1  0.607639  0.188489  0.448635  1
  O  O43  1  0.607639  0.436511  0.448635  1
  O  O44  1  0.593261  0.673034  0.465003  1
  O  O45  1  0.750000  0.812500  0.443931  1
  O  O46  1  0.750000  0.949236  0.996997  1
  O  O47  1  0.750000  0.188641  0.983698  1
  O  O48  1  0.750000  0.436358  0.983698  1
  O  O49  1  0.750000  0.675764  0.996997  1
  O  O50  1  0.906739  0.951966  0.465003  1
  O  O51  1  0.892361  0.188489  0.448635  1
  O  O52  1  0.892361  0.436511  0.448635  1
  O  O53  1  0.906739  0.673034  0.465003  1
  O  O54  1  0.926739  0.812500  0.008976  1
  O  O55  1  0.933921  0.066901  0.989944  1
  O  O56  1  0.932067  0.312500  0.995291  1
  O  O57  1  0.933921  0.558099  0.989944  1
