# generated using pymatgen
data_V18Ag7O48
_symmetry_space_group_name_H-M   'P 1'
_cell_length_a   10.45804030
_cell_length_b   8.36005054
_cell_length_c   12.92393146
_cell_angle_alpha   82.00333039
_cell_angle_beta   66.02507014
_cell_angle_gamma   70.12135882
_symmetry_Int_Tables_number   1
_chemical_formula_structural   V18Ag7O48
_chemical_formula_sum   'V18 Ag7 O48'
_cell_volume   970.92981685
_cell_formula_units_Z   1
loop_
 _symmetry_equiv_pos_site_id
 _symmetry_equiv_pos_as_xyz
  1  'x, y, z'
loop_
 _atom_site_type_symbol
 _atom_site_label
 _atom_site_symmetry_multiplicity
 _atom_site_fract_x
 _atom_site_fract_y
 _atom_site_fract_z
 _atom_site_occupancy
  V  V0  1  0.995200  0.821642  0.078791  1
  V  V1  1  0.672364  0.514037  0.920802  1
  V  V2  1  0.339371  0.844421  0.919508  1
  V  V3  1  0.282209  0.855434  0.540876  1
  V  V4  1  0.615825  0.521860  0.539875  1
  V  V5  1  0.949489  0.188431  0.540894  1
  V  V6  1  0.787711  0.136568  0.810462  1
  V  V7  1  0.121726  0.803552  0.810323  1
  V  V8  1  0.458607  0.473037  0.807055  1
  V  V9  1  0.545376  0.529097  0.189747  1
  V  V10  1  0.875994  0.191565  0.193049  1
  V  V11  1  0.207574  0.860584  0.196511  1
  V  V12  1  0.383700  0.477896  0.459303  1
  V  V13  1  0.050362  0.811040  0.460141  1
  V  V14  1  0.717185  0.144540  0.460294  1
  V  V15  1  0.331490  0.493576  0.081638  1
  V  V16  1  0.662474  0.153318  0.079068  1
  V  V17  1  0.003739  0.179246  0.919363  1
  Ag  Ag18  1  0.689503  0.808985  0.681099  1
  Ag  Ag19  1  0.643964  0.857324  0.318563  1
  Ag  Ag20  1  0.976670  0.524752  0.319887  1
  Ag  Ag21  1  0.022149  0.475791  0.680840  1
  Ag  Ag22  1  0.355794  0.141590  0.679643  1
  Ag  Ag23  1  0.311239  0.189882  0.319935  1
  Ag  Ag24  1  0.231198  0.212071  0.021050  1
  O  O25  1  0.947897  0.699442  0.552665  1
  O  O26  1  0.440570  0.941896  0.813065  1
  O  O27  1  0.773124  0.610355  0.814243  1
  O  O28  1  0.894556  0.724673  0.185036  1
  O  O29  1  0.384921  0.966892  0.449056  1
  O  O30  1  0.718030  0.633897  0.448234  1
  O  O31  1  0.142826  0.965821  0.928442  1
  O  O32  1  0.477864  0.630059  0.928438  1
  O  O33  1  0.810405  0.298986  0.928040  1
  O  O34  1  0.913233  0.252218  0.676223  1
  O  O35  1  0.246449  0.918716  0.676349  1
  O  O36  1  0.580149  0.585953  0.675941  1
  O  O37  1  0.969966  0.017841  0.827479  1
  O  O38  1  0.303835  0.685031  0.827071  1
  O  O39  1  0.637471  0.351137  0.826843  1
  O  O40  1  0.563919  0.647783  0.270033  1
  O  O41  1  0.898869  0.313241  0.269225  1
  O  O42  1  0.230465  0.984831  0.271773  1
  O  O43  1  0.424553  0.636793  0.538675  1
  O  O44  1  0.757186  0.303925  0.538894  1
  O  O45  1  0.090799  0.970509  0.539018  1
  O  O46  1  0.654330  0.601171  0.045137  1
  O  O47  1  0.989398  0.268085  0.043985  1
  O  O48  1  0.323632  0.933300  0.041941  1
  O  O49  1  0.014524  0.731214  0.953834  1
  O  O50  1  0.679821  0.065493  0.953294  1
  O  O51  1  0.347760  0.403590  0.953483  1
  O  O52  1  0.576015  0.363257  0.461437  1
  O  O53  1  0.908386  0.030071  0.461656  1
  O  O54  1  0.242583  0.696072  0.461659  1
  O  O55  1  0.102613  0.685499  0.730142  1
  O  O56  1  0.436049  0.352384  0.730667  1
  O  O57  1  0.769169  0.018900  0.729719  1
  O  O58  1  0.024952  0.986587  0.171179  1
  O  O59  1  0.696818  0.314090  0.170757  1
  O  O60  1  0.368257  0.640901  0.170626  1
  O  O61  1  0.420194  0.412699  0.324577  1
  O  O62  1  0.751149  0.081317  0.325012  1
  O  O63  1  0.084013  0.744775  0.326807  1
  O  O64  1  0.189421  0.702035  0.072419  1
  O  O65  1  0.523584  0.365509  0.070419  1
  O  O66  1  0.855966  0.034569  0.070607  1
  O  O67  1  0.281759  0.365864  0.551814  1
  O  O68  1  0.614810  0.032755  0.552207  1
  O  O69  1  0.106532  0.275835  0.813853  1
  O  O70  1  0.228158  0.392922  0.184620  1
  O  O71  1  0.561043  0.057108  0.184911  1
  O  O72  1  0.050986  0.300959  0.448842  1
