# generated using pymatgen
data_V18Cu20O57
_symmetry_space_group_name_H-M   'P 1'
_cell_length_a   7.85389134
_cell_length_b   12.20677529
_cell_length_c   12.20615251
_cell_angle_alpha   64.03315000
_cell_angle_beta   92.77151637
_cell_angle_gamma   92.76604429
_symmetry_Int_Tables_number   1
_chemical_formula_structural   V18Cu20O57
_chemical_formula_sum   'V18 Cu20 O57'
_cell_volume   1050.36764628
_cell_formula_units_Z   1
loop_
 _symmetry_equiv_pos_site_id
 _symmetry_equiv_pos_as_xyz
  1  'x, y, z'
loop_
 _atom_site_type_symbol
 _atom_site_label
 _atom_site_symmetry_multiplicity
 _atom_site_fract_x
 _atom_site_fract_y
 _atom_site_fract_z
 _atom_site_occupancy
  V  V0  1  0.928275  0.220793  0.046305  1
  V  V1  1  0.980894  0.809383  0.691299  1
  V  V2  1  0.318132  0.143801  0.025873  1
  V  V3  1  0.637482  0.471757  0.356958  1
  V  V4  1  0.581191  0.699061  0.406529  1
  V  V5  1  0.914332  0.032567  0.743019  1
  V  V6  1  0.250048  0.364885  0.084557  1
  V  V7  1  0.738391  0.445873  0.620362  1
  V  V8  1  0.403318  0.122810  0.288237  1
  V  V9  1  0.263349  0.543856  0.378430  1
  V  V10  1  0.594955  0.884464  0.712673  1
  V  V11  1  0.752335  0.634100  0.923647  1
  V  V12  1  0.416618  0.301782  0.582110  1
  V  V13  1  0.085475  0.967605  0.260138  1
  V  V14  1  0.685772  0.857284  0.975368  1
  V  V15  1  0.348535  0.522865  0.640793  1
  V  V16  1  0.029184  0.194909  0.309709  1
  V  V17  1  0.071712  0.782203  0.953994  1
  Cu  Cu18  1  0.984947  0.499396  0.183141  1
  Cu  Cu19  1  0.914453  0.716220  0.233554  1
  Cu  Cu20  1  0.672214  0.353029  0.157278  1
  Cu  Cu21  1  0.662119  0.980902  0.176960  1
  Cu  Cu22  1  0.994453  0.313637  0.509389  1
  Cu  Cu23  1  0.752213  0.950447  0.433112  1
  Cu  Cu24  1  0.418551  0.615232  0.101646  1
  Cu  Cu25  1  0.681719  0.167271  0.483526  1
  Cu  Cu26  1  0.347764  0.833136  0.152704  1
  Cu  Cu27  1  0.001053  0.000953  0.001048  1
  Cu  Cu28  1  0.665614  0.665713  0.665618  1
  Cu  Cu29  1  0.318903  0.833530  0.513963  1
  Cu  Cu30  1  0.650963  0.167478  0.847922  1
  Cu  Cu31  1  0.248116  0.051435  0.565020  1
  Cu  Cu32  1  0.579074  0.383806  0.898536  1
  Cu  Cu33  1  0.338837  0.021745  0.822838  1
  Cu  Cu34  1  0.004548  0.685765  0.489707  1
  Cu  Cu35  1  0.327830  0.644921  0.843829  1
  Cu  Cu36  1  0.087593  0.282861  0.768131  1
  Cu  Cu37  1  0.015704  0.499189  0.818745  1
  O  O38  1  0.953444  0.627127  0.013458  1
  O  O39  1  0.912126  0.821787  0.055262  1
  O  O40  1  0.896748  0.039829  0.128816  1
  O  O41  1  0.850979  0.235738  0.178254  1
  O  O42  1  0.966131  0.027666  0.350977  1
  O  O43  1  0.633246  0.693341  0.019434  1
  O  O44  1  0.918868  0.217789  0.415460  1
  O  O45  1  0.583714  0.883788  0.081753  1
  O  O46  1  0.747799  0.448878  0.251207  1
  O  O47  1  0.700536  0.639000  0.315690  1
  O  O48  1  0.815688  0.430929  0.488413  1
  O  O49  1  0.479363  0.094294  0.156018  1
  O  O50  1  0.317634  0.515147  0.018492  1
  O  O51  1  0.651274  0.848686  0.350154  1
  O  O52  1  0.984000  0.181754  0.683694  1
  O  O53  1  0.437034  0.291333  0.197607  1
  O  O54  1  0.769919  0.626837  0.537851  1
  O  O55  1  0.247946  0.749974  0.049752  1
  O  O56  1  0.580337  0.084124  0.383839  1
  O  O57  1  0.914591  0.415833  0.717058  1
  O  O58  1  0.754541  0.844880  0.611405  1
  O  O59  1  0.424013  0.517400  0.278491  1
  O  O60  1  0.874867  0.641511  0.784562  1
  O  O61  1  0.548619  0.309487  0.455092  1
  O  O62  1  0.206072  0.974282  0.117157  1
  O  O63  1  0.379296  0.706752  0.321835  1
  O  O64  1  0.713222  0.039540  0.653209  1
  O  O65  1  0.833333  0.833333  0.833333  1
  O  O66  1  0.166246  0.166121  0.166008  1
  O  O67  1  0.500420  0.500546  0.500659  1
  O  O68  1  0.618381  0.295149  0.679964  1
  O  O69  1  0.287370  0.959915  0.344832  1
  O  O70  1  0.460595  0.692385  0.549509  1
  O  O71  1  0.791800  0.025156  0.882105  1
  O  O72  1  0.118047  0.357180  0.211575  1
  O  O73  1  0.242654  0.149267  0.388175  1
  O  O74  1  0.579240  0.490132  0.722137  1
  O  O75  1  0.418721  0.916693  0.616915  1
  O  O76  1  0.086330  0.582543  0.282828  1
  O  O77  1  0.752076  0.250834  0.949608  1
  O  O78  1  0.564040  0.706886  0.796990  1
  O  O79  1  0.229632  0.375333  0.469059  1
  O  O80  1  0.682667  0.484913  0.982973  1
  O  O81  1  0.349032  0.151520  0.648175  1
  O  O82  1  0.015392  0.817981  0.316513  1
  O  O83  1  0.187304  0.572373  0.510648  1
  O  O84  1  0.518259  0.904454  0.844637  1
  O  O85  1  0.302730  0.360062  0.687649  1
  O  O86  1  0.249816  0.551230  0.748023  1
  O  O87  1  0.416851  0.115437  0.918643  1
  O  O88  1  0.082953  0.782878  0.584913  1
  O  O89  1  0.363936  0.306604  0.979017  1
  O  O90  1  0.033421  0.973325  0.647233  1
  O  O91  1  0.148407  0.762213  0.822030  1
  O  O92  1  0.102627  0.959781  0.869676  1
  O  O93  1  0.087427  0.176535  0.944530  1
  O  O94  1  0.048286  0.371518  0.986703  1
