# generated using pymatgen
data_CrReO4
_symmetry_space_group_name_H-M   'P 1'
_cell_length_a   4.75155525
_cell_length_b   5.52421829
_cell_length_c   5.52421829
_cell_angle_alpha   63.12998023
_cell_angle_beta   88.05567378
_cell_angle_gamma   88.05567388
_symmetry_Int_Tables_number   1
_chemical_formula_structural   CrReO4
_chemical_formula_sum   'Cr2 Re2 O8'
_cell_volume   129.24517503
_cell_formula_units_Z   2
loop_
 _symmetry_equiv_pos_site_id
 _symmetry_equiv_pos_as_xyz
  1  'x, y, z'
loop_
 _atom_site_type_symbol
 _atom_site_label
 _atom_site_symmetry_multiplicity
 _atom_site_fract_x
 _atom_site_fract_y
 _atom_site_fract_z
 _atom_site_occupancy
  O  O0  1  0.183142  0.591239  0.591239  1
  O  O1  1  0.816858  0.408761  0.408761  1
  O  O2  1  0.787150  0.884015  0.884015  1
  O  O3  1  0.212850  0.115985  0.115985  1
  O  O4  1  0.702601  0.383650  0.906655  1
  O  O5  1  0.297399  0.093345  0.616350  1
  O  O6  1  0.297399  0.616350  0.093345  1
  O  O7  1  0.702601  0.906655  0.383650  1
  Cr  Cr8  1  0.507251  0.263371  0.263371  1
  Cr  Cr9  1  0.492749  0.736629  0.736629  1
  Re  Re10  1  0.000000  0.777760  0.222240  1
  Re  Re11  1  0.000000  0.222240  0.777760  1
