# generated using pymatgen
data_CrWO4
_symmetry_space_group_name_H-M   'P 1'
_cell_length_a   4.73474933
_cell_length_b   5.58817339
_cell_length_c   5.58817339
_cell_angle_alpha   64.48482191
_cell_angle_beta   88.22630482
_cell_angle_gamma   88.22630478
_symmetry_Int_Tables_number   1
_chemical_formula_structural   CrWO4
_chemical_formula_sum   'Cr2 W2 O8'
_cell_volume   133.34572504
_cell_formula_units_Z   2
loop_
 _symmetry_equiv_pos_site_id
 _symmetry_equiv_pos_as_xyz
  1  'x, y, z'
loop_
 _atom_site_type_symbol
 _atom_site_label
 _atom_site_symmetry_multiplicity
 _atom_site_fract_x
 _atom_site_fract_y
 _atom_site_fract_z
 _atom_site_occupancy
  O  O0  1  0.189696  0.591917  0.591917  1
  O  O1  1  0.810304  0.408083  0.408083  1
  O  O2  1  0.785030  0.888425  0.888425  1
  O  O3  1  0.214970  0.111575  0.111575  1
  O  O4  1  0.703311  0.391262  0.904570  1
  O  O5  1  0.296689  0.095430  0.608738  1
  O  O6  1  0.296689  0.608738  0.095430  1
  O  O7  1  0.703311  0.904570  0.391262  1
  Cr  Cr8  1  0.509331  0.259765  0.259765  1
  Cr  Cr9  1  0.490669  0.740235  0.740235  1
  W  W10  1  0.000000  0.771063  0.228937  1
  W  W11  1  0.000000  0.228937  0.771063  1
