# generated using pymatgen
data_V8CuO20
_symmetry_space_group_name_H-M   'P 1'
_cell_length_a   12.01990439
_cell_length_b   9.50358644
_cell_length_c   11.04447685
_cell_angle_alpha   104.55274723
_cell_angle_beta   66.26088071
_cell_angle_gamma   94.78601103
_symmetry_Int_Tables_number   1
_chemical_formula_structural   V8CuO20
_chemical_formula_sum   'V24 Cu3 O60'
_cell_volume   1117.60928042
_cell_formula_units_Z   3
loop_
 _symmetry_equiv_pos_site_id
 _symmetry_equiv_pos_as_xyz
  1  'x, y, z'
loop_
 _atom_site_type_symbol
 _atom_site_label
 _atom_site_symmetry_multiplicity
 _atom_site_fract_x
 _atom_site_fract_y
 _atom_site_fract_z
 _atom_site_occupancy
  V  V0  1  0.025260  0.916762  0.117986  1
  V  V1  1  0.012772  0.842729  0.408127  1
  V  V2  1  0.200398  0.632946  0.091935  1
  V  V3  1  0.454505  0.881378  0.097454  1
  V  V4  1  0.295768  0.870200  0.908016  1
  V  V5  1  0.047999  0.619174  0.898699  1
  V  V6  1  0.524556  0.418299  0.118058  1
  V  V7  1  0.776893  0.667099  0.116517  1
  V  V8  1  0.276860  0.166065  0.124167  1
  V  V9  1  0.740016  0.900867  0.595878  1
  V  V10  1  0.240883  0.403149  0.594699  1
  V  V11  1  0.487465  0.656051  0.593992  1
  V  V12  1  0.514332  0.342917  0.407068  1
  V  V13  1  0.761177  0.592534  0.409309  1
  V  V14  1  0.260219  0.098386  0.404860  1
  V  V15  1  0.224093  0.329116  0.884914  1
  V  V16  1  0.474626  0.581862  0.879353  1
  V  V17  1  0.724100  0.833489  0.882189  1
  V  V18  1  0.702953  0.131439  0.093780  1
  V  V19  1  0.949727  0.378990  0.101691  1
  V  V20  1  0.798944  0.369229  0.900258  1
  V  V21  1  0.546480  0.120862  0.901458  1
  V  V22  1  0.987799  0.155267  0.591323  1
  V  V23  1  0.974679  0.084451  0.883788  1
  Cu  Cu24  1  0.285993  0.981002  0.636708  1
  Cu  Cu25  1  0.214995  0.515078  0.358115  1
  Cu  Cu26  1  0.714388  0.026014  0.365513  1
  O  O27  1  0.177661  0.998431  0.083035  1
  O  O28  1  0.082518  0.783794  0.220487  1
  O  O29  1  0.069212  0.999613  0.730912  1
  O  O30  1  0.087166  0.504039  0.048984  1
  O  O31  1  0.331636  0.763524  0.047535  1
  O  O32  1  0.072177  0.732474  0.456499  1
  O  O33  1  0.313549  0.986665  0.463236  1
  O  O34  1  0.222096  0.566379  0.205926  1
  O  O35  1  0.469196  0.811360  0.208430  1
  O  O36  1  0.031509  0.690976  0.790115  1
  O  O37  1  0.276695  0.936372  0.791606  1
  O  O38  1  0.187357  0.512949  0.534818  1
  O  O39  1  0.431406  0.767608  0.542976  1
  O  O40  1  0.998191  0.998335  0.999075  1
  O  O41  1  0.251248  0.250358  0.995532  1
  O  O42  1  0.500861  0.502626  0.000198  1
  O  O43  1  0.749960  0.749569  0.999650  1
  O  O44  1  0.416962  0.998057  0.951456  1
  O  O45  1  0.160878  0.734385  0.953868  1
  O  O46  1  0.698457  0.768277  0.268886  1
  O  O47  1  0.199293  0.275288  0.275449  1
  O  O48  1  0.428291  0.503801  0.269571  1
  O  O49  1  0.163832  0.464204  0.778617  1
  O  O50  1  0.665680  0.965510  0.781072  1
  O  O51  1  0.418868  0.711213  0.777219  1
  O  O52  1  0.440890  0.252940  0.075421  1
  O  O53  1  0.935130  0.745484  0.076249  1
  O  O54  1  0.685470  0.499178  0.080336  1
  O  O55  1  0.647512  0.731291  0.575857  1
  O  O56  1  0.897603  0.978891  0.576125  1
  O  O57  1  0.145966  0.231950  0.572260  1
  O  O58  1  0.396108  0.479574  0.575607  1
  O  O59  1  0.855280  0.766893  0.428350  1
  O  O60  1  0.102861  0.018852  0.423166  1
  O  O61  1  0.354084  0.266907  0.426745  1
  O  O62  1  0.603796  0.519451  0.426453  1
  O  O63  1  0.315743  0.503361  0.919847  1
  O  O64  1  0.062962  0.252038  0.923957  1
  O  O65  1  0.563923  0.752586  0.921315  1
  O  O66  1  0.835912  0.535892  0.220848  1
  O  O67  1  0.333646  0.035666  0.220409  1
  O  O68  1  0.582622  0.290338  0.224502  1
  O  O69  1  0.300592  0.229765  0.728761  1
  O  O70  1  0.560598  0.488310  0.730421  1
  O  O71  1  0.807942  0.742563  0.730291  1
  O  O72  1  0.579979  0.007016  0.053530  1
  O  O73  1  0.839353  0.261446  0.048897  1
  O  O74  1  0.570475  0.229889  0.456510  1
  O  O75  1  0.816067  0.483753  0.460363  1
  O  O76  1  0.721686  0.061146  0.207970  1
  O  O77  1  0.970103  0.310345  0.209910  1
  O  O78  1  0.530314  0.188581  0.790356  1
  O  O79  1  0.776813  0.436470  0.792754  1
  O  O80  1  0.932526  0.262553  0.538860  1
  O  O81  1  0.686353  0.011105  0.536430  1
  O  O82  1  0.913857  0.493775  0.948456  1
  O  O83  1  0.667497  0.240637  0.952640  1
  O  O84  1  0.929643  0.002191  0.269845  1
  O  O85  1  0.915124  0.215757  0.779354  1
  O  O86  1  0.815632  0.000849  0.917199  1
