# generated using pymatgen
data_VAg3O4
_symmetry_space_group_name_H-M   'P 1'
_cell_length_a   5.10270470
_cell_length_b   5.84125589
_cell_length_c   9.59821153
_cell_angle_alpha   79.61183278
_cell_angle_beta   74.58459089
_cell_angle_gamma   64.10129403
_symmetry_Int_Tables_number   1
_chemical_formula_structural   VAg3O4
_chemical_formula_sum   'V2 Ag6 O8'
_cell_volume   247.41429677
_cell_formula_units_Z   2
loop_
 _symmetry_equiv_pos_site_id
 _symmetry_equiv_pos_as_xyz
  1  'x, y, z'
loop_
 _atom_site_type_symbol
 _atom_site_label
 _atom_site_symmetry_multiplicity
 _atom_site_fract_x
 _atom_site_fract_y
 _atom_site_fract_z
 _atom_site_occupancy
  O  O0  1  0.864794  0.975406  0.793478  1
  O  O1  1  0.633677  0.524594  0.706522  1
  O  O2  1  0.135206  0.024594  0.206522  1
  O  O3  1  0.366323  0.475406  0.293478  1
  O  O4  1  0.748957  0.703439  0.102890  1
  O  O5  1  0.251043  0.296561  0.897110  1
  O  O6  1  0.555286  0.796561  0.397110  1
  O  O7  1  0.444714  0.203439  0.602890  1
  V  V8  1  0.448083  0.750000  0.250000  1
  V  V9  1  0.551917  0.250000  0.750000  1
  Ag  Ag10  1  0.300706  0.386752  0.097375  1
  Ag  Ag11  1  0.215167  0.886752  0.597375  1
  Ag  Ag12  1  0.699294  0.613248  0.902625  1
  Ag  Ag13  1  0.784833  0.113248  0.402625  1
  Ag  Ag14  1  0.000000  0.000000  0.000000  1
  Ag  Ag15  1  0.000000  0.500000  0.500000  1
