# generated using pymatgen
data_Cr3AgO8
_symmetry_space_group_name_H-M   'P 1'
_cell_length_a   5.17029233
_cell_length_b   5.17028773
_cell_length_c   7.22526241
_cell_angle_alpha   86.72219695
_cell_angle_beta   86.72207872
_cell_angle_gamma   65.05147650
_symmetry_Int_Tables_number   1
_chemical_formula_structural   Cr3AgO8
_chemical_formula_sum   'Cr3 Ag1 O8'
_cell_volume   174.71892218
_cell_formula_units_Z   1
loop_
 _symmetry_equiv_pos_site_id
 _symmetry_equiv_pos_as_xyz
  1  'x, y, z'
loop_
 _atom_site_type_symbol
 _atom_site_label
 _atom_site_symmetry_multiplicity
 _atom_site_fract_x
 _atom_site_fract_y
 _atom_site_fract_z
 _atom_site_occupancy
  Cr  Cr0  1  0.000010  0.000014  0.500046  1
  Cr  Cr1  1  0.655111  0.655108  0.282931  1
  Cr  Cr2  1  0.344840  0.344836  0.717145  1
  Ag  Ag3  1  1.000003  1.000003  0.000002  1
  O  O4  1  0.795338  0.291917  0.301109  1
  O  O5  1  0.291916  0.795337  0.301110  1
  O  O6  1  0.250981  0.250979  0.920065  1
  O  O7  1  0.221013  0.221010  0.552602  1
  O  O8  1  0.778975  0.778978  0.447382  1
  O  O9  1  0.749061  0.749061  0.079850  1
  O  O10  1  0.204643  0.708113  0.698879  1
  O  O11  1  0.708111  0.204646  0.698879  1
