# generated using pymatgen
data_VCr2O4
_symmetry_space_group_name_H-M   'P 1'
_cell_length_a   6.05646043
_cell_length_b   6.05646043
_cell_length_c   6.05646043
_cell_angle_alpha   60.00000000
_cell_angle_beta   90.00000000
_cell_angle_gamma   120.00000000
_symmetry_Int_Tables_number   1
_chemical_formula_structural   VCr2O4
_chemical_formula_sum   'V2 Cr4 O8'
_cell_volume   157.08750953
_cell_formula_units_Z   2
loop_
 _symmetry_equiv_pos_site_id
 _symmetry_equiv_pos_as_xyz
  1  'x, y, z'
loop_
 _atom_site_type_symbol
 _atom_site_label
 _atom_site_symmetry_multiplicity
 _atom_site_fract_x
 _atom_site_fract_y
 _atom_site_fract_z
 _atom_site_occupancy
  V  V0  1  0.625000  0.250000  0.625000  1
  V  V1  1  0.375000  0.750000  0.375000  1
  Cr  Cr2  1  0.500000  0.500000  0.000000  1
  Cr  Cr3  1  0.000000  0.000000  0.000000  1
  Cr  Cr4  1  0.000000  0.000000  0.500000  1
  Cr  Cr5  1  0.000000  0.500000  0.000000  1
  O  O6  1  0.779211  0.019474  0.240263  1
  O  O7  1  0.759737  0.519474  0.220789  1
  O  O8  1  0.240263  0.019474  0.240263  1
  O  O9  1  0.240263  0.480526  0.240263  1
  O  O10  1  0.759737  0.519474  0.759737  1
  O  O11  1  0.759737  0.980526  0.759737  1
  O  O12  1  0.240263  0.480526  0.779211  1
  O  O13  1  0.220789  0.980526  0.759737  1
