# generated using pymatgen
data_V2CuO6
_symmetry_space_group_name_H-M   'P 1'
_cell_length_a   3.57376841
_cell_length_b   5.02522231
_cell_length_c   6.66217251
_cell_angle_alpha   105.95126165
_cell_angle_beta   90.00081083
_cell_angle_gamma   110.83263222
_symmetry_Int_Tables_number   1
_chemical_formula_structural   V2CuO6
_chemical_formula_sum   'V2 Cu1 O6'
_cell_volume   106.88010170
_cell_formula_units_Z   1
loop_
 _symmetry_equiv_pos_site_id
 _symmetry_equiv_pos_as_xyz
  1  'x, y, z'
loop_
 _atom_site_type_symbol
 _atom_site_label
 _atom_site_symmetry_multiplicity
 _atom_site_fract_x
 _atom_site_fract_y
 _atom_site_fract_z
 _atom_site_occupancy
  Cu  Cu0  1  0.997186  0.999942  0.999943  1
  V  V1  1  0.202907  0.409421  0.669018  1
  V  V2  1  0.793480  0.590595  0.330984  1
  O  O3  1  0.041678  0.087554  0.741833  1
  O  O4  1  0.954214  0.912432  0.258166  1
  O  O5  1  0.347766  0.699349  0.890490  1
  O  O6  1  0.648439  0.300693  0.109545  1
  O  O7  1  0.297092  0.597850  0.423793  1
  O  O8  1  0.699241  0.402165  0.576228  1
