# generated using pymatgen
data_V(FeO2)2
_symmetry_space_group_name_H-M   'P 1'
_cell_length_a   6.08083704
_cell_length_b   6.03563114
_cell_length_c   6.08083713
_cell_angle_alpha   60.24562113
_cell_angle_beta   60.43016525
_cell_angle_gamma   60.24562476
_symmetry_Int_Tables_number   1
_chemical_formula_structural   V(FeO2)2
_chemical_formula_sum   'V2 Fe4 O8'
_cell_volume   158.90564858
_cell_formula_units_Z   2
loop_
 _symmetry_equiv_pos_site_id
 _symmetry_equiv_pos_as_xyz
  1  'x, y, z'
loop_
 _atom_site_type_symbol
 _atom_site_label
 _atom_site_symmetry_multiplicity
 _atom_site_fract_x
 _atom_site_fract_y
 _atom_site_fract_z
 _atom_site_occupancy
  V  V0  1  0.125000  0.625000  0.625000  1
  V  V1  1  0.625000  0.625000  0.125000  1
  Fe  Fe2  1  0.004605  0.995395  0.004605  1
  Fe  Fe3  1  0.245395  0.254605  0.245395  1
  Fe  Fe4  1  0.625000  0.125000  0.625000  1
  Fe  Fe5  1  0.625000  0.625000  0.625000  1
  O  O6  1  0.373504  0.390089  0.373504  1
  O  O7  1  0.373504  0.862903  0.373504  1
  O  O8  1  0.365127  0.388450  0.857973  1
  O  O9  1  0.857973  0.388450  0.365127  1
  O  O10  1  0.392027  0.861550  0.884873  1
  O  O11  1  0.876496  0.387097  0.876496  1
  O  O12  1  0.884873  0.861550  0.392027  1
  O  O13  1  0.876496  0.859911  0.876496  1
