# generated using pymatgen
data_VHgO3
_symmetry_space_group_name_H-M   'P 1'
_cell_length_a   3.65000445
_cell_length_b   5.07219948
_cell_length_c   8.81960667
_cell_angle_alpha   86.09595639
_cell_angle_beta   77.65293259
_cell_angle_gamma   87.18825187
_symmetry_Int_Tables_number   1
_chemical_formula_structural   VHgO3
_chemical_formula_sum   'V2 Hg2 O6'
_cell_volume   159.03570879
_cell_formula_units_Z   2
loop_
 _symmetry_equiv_pos_site_id
 _symmetry_equiv_pos_as_xyz
  1  'x, y, z'
loop_
 _atom_site_type_symbol
 _atom_site_label
 _atom_site_symmetry_multiplicity
 _atom_site_fract_x
 _atom_site_fract_y
 _atom_site_fract_z
 _atom_site_occupancy
  Hg  Hg0  1  0.277271  0.178394  0.575444  1
  Hg  Hg1  1  0.722729  0.821606  0.424556  1
  V  V2  1  0.188444  0.388526  0.136820  1
  V  V3  1  0.811556  0.611474  0.863180  1
  O  O4  1  0.077138  0.499200  0.326329  1
  O  O5  1  0.922862  0.500800  0.673671  1
  O  O6  1  0.197264  0.065095  0.160816  1
  O  O7  1  0.802736  0.934904  0.839184  1
  O  O8  1  0.706302  0.479305  0.088800  1
  O  O9  1  0.293698  0.520695  0.911200  1
