# generated using pymatgen
data_V2MoO8
_symmetry_space_group_name_H-M   'P 1'
_cell_length_a   3.77605086
_cell_length_b   3.90943494
_cell_length_c   9.94036207
_cell_angle_alpha   90.13298580
_cell_angle_beta   100.94776959
_cell_angle_gamma   90.00004582
_symmetry_Int_Tables_number   1
_chemical_formula_structural   V2MoO8
_chemical_formula_sum   'V2 Mo1 O8'
_cell_volume   144.07086363
_cell_formula_units_Z   1
loop_
 _symmetry_equiv_pos_site_id
 _symmetry_equiv_pos_as_xyz
  1  'x, y, z'
loop_
 _atom_site_type_symbol
 _atom_site_label
 _atom_site_symmetry_multiplicity
 _atom_site_fract_x
 _atom_site_fract_y
 _atom_site_fract_z
 _atom_site_occupancy
  Mo  Mo0  1  0.999997  -0.000005  0.999997  1
  V  V1  1  0.810191  0.911731  0.620422  1
  V  V2  1  0.189806  0.088248  0.379571  1
  O  O3  1  0.500002  0.000003  0.000004  1
  O  O4  1  0.000001  0.500005  0.000001  1
  O  O5  1  0.811395  0.493743  0.622794  1
  O  O6  1  0.188605  0.506277  0.377207  1
  O  O7  1  0.901338  0.994544  0.802655  1
  O  O8  1  0.098664  0.005459  0.197348  1
  O  O9  1  0.709137  0.007595  0.418291  1
  O  O10  1  0.290863  0.992400  0.581711  1
