# generated using pymatgen
data_V2NiO6
_symmetry_space_group_name_H-M   'P 1'
_cell_length_a   5.27871562
_cell_length_b   5.43232510
_cell_length_c   5.63462288
_cell_angle_alpha   53.08804486
_cell_angle_beta   55.94221947
_cell_angle_gamma   57.25101300
_symmetry_Int_Tables_number   1
_chemical_formula_structural   V2NiO6
_chemical_formula_sum   'V2 Ni1 O6'
_cell_volume   101.79655192
_cell_formula_units_Z   1
loop_
 _symmetry_equiv_pos_site_id
 _symmetry_equiv_pos_as_xyz
  1  'x, y, z'
loop_
 _atom_site_type_symbol
 _atom_site_label
 _atom_site_symmetry_multiplicity
 _atom_site_fract_x
 _atom_site_fract_y
 _atom_site_fract_z
 _atom_site_occupancy
  V  V0  1  0.018420  0.972208  0.975782  1
  V  V1  1  0.503329  0.499702  0.455936  1
  Ni  Ni2  1  0.697576  0.700468  0.699064  1
  O  O3  1  0.140377  0.756752  0.382997  1
  O  O4  1  0.394796  0.126529  0.751446  1
  O  O5  1  0.743628  0.422228  0.130119  1
  O  O6  1  0.244004  0.653958  0.880674  1
  O  O7  1  0.660541  0.848685  0.291550  1
  O  O8  1  0.848130  0.270270  0.682433  1
