# generated using pymatgen
data_VRe2O9
_symmetry_space_group_name_H-M   'P 1'
_cell_length_a   5.79694995
_cell_length_b   8.15602940
_cell_length_c   9.11144033
_cell_angle_alpha   90.00000000
_cell_angle_beta   90.00000000
_cell_angle_gamma   110.81662457
_symmetry_Int_Tables_number   1
_chemical_formula_structural   VRe2O9
_chemical_formula_sum   'V2 Re4 O18'
_cell_volume   402.66892272
_cell_formula_units_Z   2
loop_
 _symmetry_equiv_pos_site_id
 _symmetry_equiv_pos_as_xyz
  1  'x, y, z'
loop_
 _atom_site_type_symbol
 _atom_site_label
 _atom_site_symmetry_multiplicity
 _atom_site_fract_x
 _atom_site_fract_y
 _atom_site_fract_z
 _atom_site_occupancy
  O  O0  1  0.069381  0.138762  0.065612  1
  O  O1  1  0.930619  0.861238  0.565612  1
  O  O2  1  0.426027  0.852055  0.146869  1
  O  O3  1  0.573972  0.147945  0.646870  1
  O  O4  1  0.406084  0.812169  0.452467  1
  O  O5  1  0.593915  0.187831  0.952468  1
  O  O6  1  0.035280  0.575578  0.673154  1
  O  O7  1  0.964719  0.424422  0.173153  1
  O  O8  1  0.540298  0.575578  0.673154  1
  O  O9  1  0.459702  0.424422  0.173153  1
  O  O10  1  0.196364  0.392728  0.444013  1
  O  O11  1  0.803635  0.607272  0.944014  1
  O  O12  1  0.299147  0.098912  0.322793  1
  O  O13  1  0.864673  0.729347  0.235546  1
  O  O14  1  0.200233  0.901088  0.822794  1
  O  O15  1  0.799766  0.098912  0.322793  1
  O  O16  1  0.700855  0.901088  0.822794  1
  O  O17  1  0.135326  0.270653  0.735547  1
  V  V18  1  0.119955  0.239910  0.220569  1
  V  V19  1  0.880044  0.760090  0.720570  1
  Re  Re20  1  0.517743  0.035487  0.811468  1
  Re  Re21  1  0.482257  0.964513  0.311469  1
  Re  Re22  1  0.771569  0.543139  0.128590  1
  Re  Re23  1  0.228430  0.456861  0.628589  1
