# generated using pymatgen
data_VRu3
_symmetry_space_group_name_H-M   'P 1'
_cell_length_a   5.46508609
_cell_length_b   5.46506669
_cell_length_c   4.25814514
_cell_angle_alpha   90.00000000
_cell_angle_beta   90.00000000
_cell_angle_gamma   120.00841440
_symmetry_Int_Tables_number   1
_chemical_formula_structural   VRu3
_chemical_formula_sum   'V2 Ru6'
_cell_volume   110.13027821
_cell_formula_units_Z   2
loop_
 _symmetry_equiv_pos_site_id
 _symmetry_equiv_pos_as_xyz
  1  'x, y, z'
loop_
 _atom_site_type_symbol
 _atom_site_label
 _atom_site_symmetry_multiplicity
 _atom_site_fract_x
 _atom_site_fract_y
 _atom_site_fract_z
 _atom_site_occupancy
  V  V0  1  0.333302  0.666677  0.750001  1
  V  V1  1  0.666670  0.333330  0.250001  1
  Ru  Ru2  1  0.169949  0.339800  0.250001  1
  Ru  Ru3  1  0.660217  0.830060  0.250001  1
  Ru  Ru4  1  0.169914  0.830087  0.250001  1
  Ru  Ru5  1  0.830021  0.660140  0.750001  1
  Ru  Ru6  1  0.339877  0.169979  0.750001  1
  Ru  Ru7  1  0.830052  0.169926  0.750001  1
