# generated using pymatgen
data_V2ZnO6
_symmetry_space_group_name_H-M   'P 1'
_cell_length_a   3.55242939
_cell_length_b   5.06438993
_cell_length_c   6.79462762
_cell_angle_alpha   107.30291670
_cell_angle_beta   90.00040109
_cell_angle_gamma   110.53396315
_symmetry_Int_Tables_number   1
_chemical_formula_structural   V2ZnO6
_chemical_formula_sum   'V2 Zn1 O6'
_cell_volume   108.54755603
_cell_formula_units_Z   1
loop_
 _symmetry_equiv_pos_site_id
 _symmetry_equiv_pos_as_xyz
  1  'x, y, z'
loop_
 _atom_site_type_symbol
 _atom_site_label
 _atom_site_symmetry_multiplicity
 _atom_site_fract_x
 _atom_site_fract_y
 _atom_site_fract_z
 _atom_site_occupancy
  Zn  Zn0  1  0.000000  0.000000  0.000000  1
  V  V1  1  0.202219  0.404425  0.664665  1
  V  V2  1  0.797781  0.595575  0.335335  1
  O  O3  1  0.045267  0.090522  0.735745  1
  O  O4  1  0.954733  0.909478  0.264255  1
  O  O5  1  0.348735  0.697498  0.886166  1
  O  O6  1  0.651265  0.302502  0.113834  1
  O  O7  1  0.301682  0.603347  0.429131  1
  O  O8  1  0.698318  0.396653  0.570869  1
