# generated using pymatgen
data_V3NiO8
_symmetry_space_group_name_H-M   'P 1'
_cell_length_a   5.65172085
_cell_length_b   7.09847990
_cell_length_c   5.39242859
_cell_angle_alpha   90.74227981
_cell_angle_beta   90.13599230
_cell_angle_gamma   88.89919615
_symmetry_Int_Tables_number   1
_chemical_formula_structural   V3NiO8
_chemical_formula_sum   'V3 Ni1 O8'
_cell_volume   216.27826431
_cell_formula_units_Z   1
loop_
 _symmetry_equiv_pos_site_id
 _symmetry_equiv_pos_as_xyz
  1  'x, y, z'
loop_
 _atom_site_type_symbol
 _atom_site_label
 _atom_site_symmetry_multiplicity
 _atom_site_fract_x
 _atom_site_fract_y
 _atom_site_fract_z
 _atom_site_occupancy
  V  V0  1  0.076179  0.122014  0.008464  1
  V  V1  1  0.423495  0.628183  0.500020  1
  V  V2  1  0.572445  0.371332  0.997459  1
  Ni  Ni3  1  0.914425  0.875637  0.497528  1
  O  O4  1  0.053176  0.080834  0.315826  1
  O  O5  1  0.133599  0.666336  0.435570  1
  O  O6  1  0.377049  0.180736  0.924547  1
  O  O7  1  0.465307  0.570890  0.822630  1
  O  O8  1  0.537025  0.428940  0.323521  1
  O  O9  1  0.581517  0.822671  0.437750  1
  O  O10  1  0.882043  0.320101  0.939645  1
  O  O11  1  0.983740  0.932322  0.845440  1
