# generated using pymatgen
data_V4Ag2O11
_symmetry_space_group_name_H-M   'P 1'
_cell_length_a   3.61100368
_cell_length_b   7.98057240
_cell_length_c   8.12519244
_cell_angle_alpha   73.29600243
_cell_angle_beta   77.16110938
_cell_angle_gamma   76.92436311
_symmetry_Int_Tables_number   1
_chemical_formula_structural   V4Ag2O11
_chemical_formula_sum   'V4 Ag2 O11'
_cell_volume   215.33269428
_cell_formula_units_Z   1
loop_
 _symmetry_equiv_pos_site_id
 _symmetry_equiv_pos_as_xyz
  1  'x, y, z'
loop_
 _atom_site_type_symbol
 _atom_site_label
 _atom_site_symmetry_multiplicity
 _atom_site_fract_x
 _atom_site_fract_y
 _atom_site_fract_z
 _atom_site_occupancy
  O  O0  1  0.501387  0.316722  0.680507  1
  O  O1  1  0.498615  0.683279  0.319493  1
  O  O2  1  0.684626  0.276518  0.354231  1
  O  O3  1  0.315375  0.723482  0.645769  1
  O  O4  1  0.823259  0.336621  0.016862  1
  O  O5  1  0.176743  0.663380  0.983137  1
  O  O6  1  0.000000  0.000000  0.000000  1
  O  O7  1  0.349111  0.082074  0.219706  1
  O  O8  1  0.835155  0.919586  0.410104  1
  O  O9  1  0.164846  0.080414  0.589895  1
  O  O10  1  0.650890  0.917927  0.780293  1
  V  V11  1  0.634321  0.155071  0.576285  1
  V  V12  1  0.365678  0.844928  0.423714  1
  V  V13  1  0.854183  0.138839  0.152792  1
  V  V14  1  0.145815  0.861162  0.847208  1
  Ag  Ag15  1  0.880545  0.506926  0.731983  1
  Ag  Ag16  1  0.119454  0.493073  0.268018  1
