# generated using pymatgen
data_VAgO3
_symmetry_space_group_name_H-M   'P 1'
_cell_length_a   3.62014435
_cell_length_b   8.14726641
_cell_length_c   9.46345408
_cell_angle_alpha   104.88079080
_cell_angle_beta   101.02689368
_cell_angle_gamma   90.00000295
_symmetry_Int_Tables_number   1
_chemical_formula_structural   VAgO3
_chemical_formula_sum   'V4 Ag4 O12'
_cell_volume   264.42120315
_cell_formula_units_Z   4
loop_
 _symmetry_equiv_pos_site_id
 _symmetry_equiv_pos_as_xyz
  1  'x, y, z'
loop_
 _atom_site_type_symbol
 _atom_site_label
 _atom_site_symmetry_multiplicity
 _atom_site_fract_x
 _atom_site_fract_y
 _atom_site_fract_z
 _atom_site_occupancy
  V  V0  1  0.676737  0.561584  0.353475  1
  V  V1  1  0.125131  0.230118  0.250264  1
  V  V2  1  0.322380  0.435081  0.644760  1
  V  V3  1  0.869790  0.766990  0.739579  1
  Ag  Ag4  1  0.748380  0.040209  0.496759  1
  Ag  Ag5  1  0.999787  0.502302  0.999575  1
  Ag  Ag6  1  0.548626  0.863418  0.097253  1
  Ag  Ag7  1  0.448190  0.131950  0.896379  1
  O  O8  1  0.348326  0.704308  0.696652  1
  O  O9  1  0.261950  0.234123  0.523900  1
  O  O10  1  0.591048  0.598502  0.182096  1
  O  O11  1  0.877563  0.982170  0.755126  1
  O  O12  1  0.648519  0.288595  0.297037  1
  O  O13  1  0.118604  0.015696  0.237207  1
  O  O14  1  0.185896  0.492747  0.371790  1
  O  O15  1  0.738643  0.756535  0.477287  1
  O  O16  1  0.811187  0.497593  0.622375  1
  O  O17  1  0.033230  0.237917  0.066459  1
  O  O18  1  0.962207  0.761180  0.924414  1
  O  O19  1  0.408607  0.401681  0.817214  1
