# generated using pymatgen
data_VAgO3
_symmetry_space_group_name_H-M   'P 1'
_cell_length_a   5.60195729
_cell_length_b   7.29770241
_cell_length_c   7.29770179
_cell_angle_alpha   86.78468567
_cell_angle_beta   82.89048803
_cell_angle_gamma   82.89048813
_symmetry_Int_Tables_number   1
_chemical_formula_structural   VAgO3
_chemical_formula_sum   'V4 Ag4 O12'
_cell_volume   293.51847213
_cell_formula_units_Z   4
loop_
 _symmetry_equiv_pos_site_id
 _symmetry_equiv_pos_as_xyz
  1  'x, y, z'
loop_
 _atom_site_type_symbol
 _atom_site_label
 _atom_site_symmetry_multiplicity
 _atom_site_fract_x
 _atom_site_fract_y
 _atom_site_fract_z
 _atom_site_occupancy
  V  V0  1  0.285494  0.887110  0.714829  1
  V  V1  1  0.785494  0.714829  0.887110  1
  V  V2  1  0.714506  0.112890  0.285171  1
  V  V3  1  0.214506  0.285171  0.112890  1
  Ag  Ag4  1  0.250000  0.781307  0.218693  1
  Ag  Ag5  1  0.750000  0.589238  0.410762  1
  Ag  Ag6  1  0.250000  0.410762  0.589238  1
  Ag  Ag7  1  0.750000  0.218693  0.781307  1
  O  O8  1  0.335111  0.362179  0.904649  1
  O  O9  1  0.426063  0.096318  0.197470  1
  O  O10  1  0.573937  0.903682  0.802530  1
  O  O11  1  0.926063  0.197470  0.096318  1
  O  O12  1  0.329718  0.733495  0.542387  1
  O  O13  1  0.670282  0.266505  0.457613  1
  O  O14  1  0.829718  0.542387  0.733495  1
  O  O15  1  0.664889  0.637821  0.095351  1
  O  O16  1  0.170282  0.457613  0.266505  1
  O  O17  1  0.164889  0.095351  0.637821  1
  O  O18  1  0.073937  0.802530  0.903682  1
  O  O19  1  0.835111  0.904649  0.362179  1
