# generated using pymatgen
data_V2CdO4
_symmetry_space_group_name_H-M   'P 1'
_cell_length_a   6.24083927
_cell_length_b   6.24083926
_cell_length_c   6.24083927
_cell_angle_alpha   60.00000002
_cell_angle_beta   60.00000005
_cell_angle_gamma   59.99999997
_symmetry_Int_Tables_number   1
_chemical_formula_structural   V2CdO4
_chemical_formula_sum   'V4 Cd2 O8'
_cell_volume   171.87550798
_cell_formula_units_Z   2
loop_
 _symmetry_equiv_pos_site_id
 _symmetry_equiv_pos_as_xyz
  1  'x, y, z'
loop_
 _atom_site_type_symbol
 _atom_site_label
 _atom_site_symmetry_multiplicity
 _atom_site_fract_x
 _atom_site_fract_y
 _atom_site_fract_z
 _atom_site_occupancy
  O  O0  1  0.732843  0.732843  0.732843  1
  O  O1  1  0.267157  0.267157  0.698529  1
  O  O2  1  0.267157  0.698529  0.267157  1
  O  O3  1  0.698529  0.267157  0.267157  1
  O  O4  1  0.732843  0.301471  0.732843  1
  O  O5  1  0.301471  0.732843  0.732843  1
  O  O6  1  0.267157  0.267157  0.267157  1
  O  O7  1  0.732843  0.732843  0.301471  1
  V  V8  1  0.500000  0.000000  0.500000  1
  V  V9  1  0.000000  0.500000  0.500000  1
  V  V10  1  0.500000  0.500000  0.000000  1
  V  V11  1  0.500000  0.500000  0.500000  1
  Cd  Cd12  1  0.125000  0.125000  0.125000  1
  Cd  Cd13  1  0.875000  0.875000  0.875000  1
