# generated using pymatgen
data_V2Co3O8
_symmetry_space_group_name_H-M   'P 1'
_cell_length_a   6.06293684
_cell_length_b   6.57300792
_cell_length_c   8.43496384
_cell_angle_alpha   90.11405619
_cell_angle_beta   90.02223652
_cell_angle_gamma   117.54798096
_symmetry_Int_Tables_number   1
_chemical_formula_structural   V2Co3O8
_chemical_formula_sum   'V4 Co6 O16'
_cell_volume   298.03584262
_cell_formula_units_Z   2
loop_
 _symmetry_equiv_pos_site_id
 _symmetry_equiv_pos_as_xyz
  1  'x, y, z'
loop_
 _atom_site_type_symbol
 _atom_site_label
 _atom_site_symmetry_multiplicity
 _atom_site_fract_x
 _atom_site_fract_y
 _atom_site_fract_z
 _atom_site_occupancy
  V  V0  1  0.375073  0.751362  0.881892  1
  V  V1  1  0.124678  0.249829  0.382249  1
  V  V2  1  0.624437  0.248791  0.117977  1
  V  V3  1  0.875639  0.750251  0.617768  1
  Co  Co4  1  0.621474  0.743080  0.250139  1
  Co  Co5  1  0.121531  0.742574  0.249878  1
  Co  Co6  1  0.878043  0.256319  0.750028  1
  Co  Co7  1  0.381337  0.262062  0.751392  1
  Co  Co8  1  0.500339  -0.000086  0.500329  1
  Co  Co9  1  0.000417  -0.000063  0.999669  1
  O  O10  1  0.748396  0.493493  0.725337  1
  O  O11  1  0.384705  0.234103  0.997095  1
  O  O12  1  0.149646  0.764548  0.002058  1
  O  O13  1  0.502808  0.004726  0.254687  1
  O  O14  1  0.884523  0.236018  0.501085  1
  O  O15  1  0.996750  0.994298  0.754107  1
  O  O16  1  0.498234  0.995343  0.745463  1
  O  O17  1  0.349417  0.236077  0.502861  1
  O  O18  1  0.649582  0.763213  0.498185  1
  O  O19  1  0.252613  0.505360  0.273922  1
  O  O20  1  0.002872  0.004938  0.245645  1
  O  O21  1  0.849995  0.235106  0.998819  1
  O  O22  1  0.245756  0.494763  0.773908  1
  O  O23  1  0.614397  0.764490  0.001657  1
  O  O24  1  0.752130  0.505241  0.225785  1
  O  O25  1  0.115212  0.764167  0.498066  1
