# generated using pymatgen
data_VCrO3
_symmetry_space_group_name_H-M   'P 1'
_cell_length_a   5.12699319
_cell_length_b   5.50420799
_cell_length_c   9.07178576
_cell_angle_alpha   85.16912405
_cell_angle_beta   73.64462699
_cell_angle_gamma   117.82293418
_symmetry_Int_Tables_number   1
_chemical_formula_structural   VCrO3
_chemical_formula_sum   'V4 Cr4 O12'
_cell_volume   210.11675011
_cell_formula_units_Z   4
loop_
 _symmetry_equiv_pos_site_id
 _symmetry_equiv_pos_as_xyz
  1  'x, y, z'
loop_
 _atom_site_type_symbol
 _atom_site_label
 _atom_site_symmetry_multiplicity
 _atom_site_fract_x
 _atom_site_fract_y
 _atom_site_fract_z
 _atom_site_occupancy
  V  V0  1  0.151062  0.370951  0.075789  1
  V  V1  1  0.353843  0.877050  0.174690  1
  V  V2  1  0.349917  0.376790  0.675614  1
  V  V3  1  0.850627  0.128797  0.424565  1
  Cr  Cr4  1  0.149153  0.877168  0.575017  1
  Cr  Cr5  1  0.650883  0.627135  0.325269  1
  Cr  Cr6  1  0.649911  0.124872  0.825068  1
  Cr  Cr7  1  0.849437  0.621392  0.924881  1
  O  O8  1  0.051154  0.527258  0.723218  1
  O  O9  1  0.049869  0.025144  0.223075  1
  O  O10  1  0.444641  0.873544  0.375034  1
  O  O11  1  0.556476  0.623700  0.125354  1
  O  O12  1  0.250526  0.773058  0.973464  1
  O  O13  1  0.250487  0.276299  0.472467  1
  O  O14  1  0.749714  0.724935  0.527050  1
  O  O15  1  0.749639  0.224179  0.024787  1
  O  O16  1  0.449140  0.373113  0.876044  1
  O  O17  1  0.551394  0.125105  0.625522  1
  O  O18  1  0.946489  0.972489  0.776286  1
  O  O19  1  0.945641  0.477019  0.276806  1
