# generated using pymatgen
data_VCrO3
_symmetry_space_group_name_H-M   'P 1'
_cell_length_a   5.50336304
_cell_length_b   5.10522850
_cell_length_c   7.50375387
_cell_angle_alpha   90.06115028
_cell_angle_beta   95.83462533
_cell_angle_gamma   90.04417283
_symmetry_Int_Tables_number   1
_chemical_formula_structural   VCrO3
_chemical_formula_sum   'V4 Cr4 O12'
_cell_volume   209.73252294
_cell_formula_units_Z   4
loop_
 _symmetry_equiv_pos_site_id
 _symmetry_equiv_pos_as_xyz
  1  'x, y, z'
loop_
 _atom_site_type_symbol
 _atom_site_label
 _atom_site_symmetry_multiplicity
 _atom_site_fract_x
 _atom_site_fract_y
 _atom_site_fract_z
 _atom_site_occupancy
  V  V0  1  0.298668  0.999611  0.851571  1
  V  V1  1  0.203949  0.500071  0.651837  1
  V  V2  1  0.700124  0.999105  0.146144  1
  V  V3  1  0.297337  0.001002  0.350907  1
  Cr  Cr4  1  0.803845  0.499695  0.848427  1
  Cr  Cr5  1  0.698011  0.999612  0.649610  1
  Cr  Cr6  1  0.799994  0.500156  0.349253  1
  Cr  Cr7  1  0.197162  0.500341  0.152775  1
  O  O8  1  0.503682  0.302166  0.748919  1
  O  O9  1  0.653908  0.846786  0.898972  1
  O  O10  1  0.850773  0.651521  0.599454  1
  O  O11  1  0.998609  0.196028  0.750016  1
  O  O12  1  0.651597  0.151237  0.399896  1
  O  O13  1  0.150572  0.651413  0.904850  1
  O  O14  1  0.350269  0.848076  0.598685  1
  O  O15  1  0.849333  0.350677  0.098391  1
  O  O16  1  0.149685  0.349730  0.402073  1
  O  O17  1  0.345066  0.153372  0.097596  1
  O  O18  1  0.499376  0.697590  0.249733  1
  O  O19  1  0.998035  0.801813  0.250892  1
