# generated using pymatgen
data_VCrO3
_symmetry_space_group_name_H-M   'P 1'
_cell_length_a   5.11809900
_cell_length_b   5.50588324
_cell_length_c   9.06972417
_cell_angle_alpha   85.10584521
_cell_angle_beta   73.71138190
_cell_angle_gamma   117.76525724
_symmetry_Int_Tables_number   1
_chemical_formula_structural   VCrO3
_chemical_formula_sum   'V4 Cr4 O12'
_cell_volume   209.94190500
_cell_formula_units_Z   4
loop_
 _symmetry_equiv_pos_site_id
 _symmetry_equiv_pos_as_xyz
  1  'x, y, z'
loop_
 _atom_site_type_symbol
 _atom_site_label
 _atom_site_symmetry_multiplicity
 _atom_site_fract_x
 _atom_site_fract_y
 _atom_site_fract_z
 _atom_site_occupancy
  V  V0  1  0.147013  0.873109  0.574478  1
  V  V1  1  0.151508  0.370748  0.075254  1
  V  V2  1  0.354940  0.877255  0.173568  1
  V  V3  1  0.850746  0.128134  0.426395  1
  Cr  Cr4  1  0.346766  0.370901  0.675474  1
  Cr  Cr5  1  0.653397  0.629466  0.324573  1
  Cr  Cr6  1  0.650189  0.127419  0.826123  1
  Cr  Cr7  1  0.850653  0.623697  0.924272  1
  O  O8  1  0.051459  0.524408  0.723423  1
  O  O9  1  0.051524  0.025702  0.223875  1
  O  O10  1  0.447115  0.874361  0.373816  1
  O  O11  1  0.557916  0.624802  0.124334  1
  O  O12  1  0.248872  0.773346  0.973895  1
  O  O13  1  0.251219  0.280291  0.473129  1
  O  O14  1  0.746917  0.721442  0.527196  1
  O  O15  1  0.748842  0.224753  0.025408  1
  O  O16  1  0.447513  0.374489  0.874766  1
  O  O17  1  0.550880  0.126029  0.626816  1
  O  O18  1  0.946031  0.974540  0.776127  1
  O  O19  1  0.946499  0.475107  0.277078  1
