# generated using pymatgen
data_VCrO3
_symmetry_space_group_name_H-M   'P 1'
_cell_length_a   5.09724269
_cell_length_b   5.49961806
_cell_length_c   9.09343889
_cell_angle_alpha   85.22043499
_cell_angle_beta   73.66018547
_cell_angle_gamma   117.60006258
_symmetry_Int_Tables_number   1
_chemical_formula_structural   VCrO3
_chemical_formula_sum   'V4 Cr4 O12'
_cell_volume   209.82863040
_cell_formula_units_Z   4
loop_
 _symmetry_equiv_pos_site_id
 _symmetry_equiv_pos_as_xyz
  1  'x, y, z'
loop_
 _atom_site_type_symbol
 _atom_site_label
 _atom_site_symmetry_multiplicity
 _atom_site_fract_x
 _atom_site_fract_y
 _atom_site_fract_z
 _atom_site_occupancy
  V  V0  1  0.149525  0.874741  0.572987  1
  V  V1  1  0.351428  0.876571  0.173321  1
  V  V2  1  0.348579  0.376571  0.677141  1
  V  V3  1  0.850503  0.126248  0.426157  1
  Cr  Cr4  1  0.150810  0.375796  0.076104  1
  Cr  Cr5  1  0.651840  0.627516  0.323384  1
  Cr  Cr6  1  0.649299  0.124997  0.827102  1
  Cr  Cr7  1  0.848977  0.622174  0.924170  1
  O  O8  1  0.051473  0.525988  0.724447  1
  O  O9  1  0.052780  0.026334  0.223330  1
  O  O10  1  0.446951  0.874067  0.374079  1
  O  O11  1  0.553516  0.623957  0.124164  1
  O  O12  1  0.249572  0.775036  0.973602  1
  O  O13  1  0.252110  0.281407  0.471793  1
  O  O14  1  0.750424  0.720292  0.525177  1
  O  O15  1  0.753478  0.226056  0.025518  1
  O  O16  1  0.447367  0.374397  0.877689  1
  O  O17  1  0.551453  0.124797  0.627539  1
  O  O18  1  0.945583  0.971893  0.775744  1
  O  O19  1  0.944332  0.471163  0.276550  1
