# generated using pymatgen
data_VCr2O6
_symmetry_space_group_name_H-M   'P 1'
_cell_length_a   5.17159855
_cell_length_b   13.90745098
_cell_length_c   5.42387401
_cell_angle_alpha   90.00000000
_cell_angle_beta   90.00000000
_cell_angle_gamma   90.00000000
_symmetry_Int_Tables_number   1
_chemical_formula_structural   VCr2O6
_chemical_formula_sum   'V4 Cr8 O24'
_cell_volume   390.10537635
_cell_formula_units_Z   4
loop_
 _symmetry_equiv_pos_site_id
 _symmetry_equiv_pos_as_xyz
  1  'x, y, z'
loop_
 _atom_site_type_symbol
 _atom_site_label
 _atom_site_symmetry_multiplicity
 _atom_site_fract_x
 _atom_site_fract_y
 _atom_site_fract_z
 _atom_site_occupancy
  V  V0  1  0.250000  0.000000  0.341566  1
  V  V1  1  0.250000  0.500000  0.841566  1
  V  V2  1  0.750000  0.000000  0.658434  1
  V  V3  1  0.750000  0.500000  0.158434  1
  Cr  Cr4  1  0.990634  0.174299  0.142277  1
  Cr  Cr5  1  0.990634  0.325701  0.642277  1
  Cr  Cr6  1  0.009366  0.674299  0.357723  1
  Cr  Cr7  1  0.009366  0.825701  0.857723  1
  Cr  Cr8  1  0.490634  0.325701  0.357723  1
  Cr  Cr9  1  0.509366  0.674299  0.642277  1
  Cr  Cr10  1  0.490634  0.174299  0.857723  1
  Cr  Cr11  1  0.509366  0.825701  0.142277  1
  O  O12  1  0.062525  0.569755  0.109901  1
  O  O13  1  0.190517  0.593456  0.617010  1
  O  O14  1  0.190517  0.906544  0.117010  1
  O  O15  1  0.062525  0.930245  0.609901  1
  O  O16  1  0.153180  0.259867  0.370181  1
  O  O17  1  0.153180  0.240133  0.870181  1
  O  O18  1  0.346820  0.740133  0.370181  1
  O  O19  1  0.346820  0.759867  0.870181  1
  O  O20  1  0.309483  0.093456  0.117010  1
  O  O21  1  0.437475  0.069755  0.609901  1
  O  O22  1  0.437475  0.430245  0.109901  1
  O  O23  1  0.309483  0.406544  0.617010  1
  O  O24  1  0.690517  0.593456  0.382990  1
  O  O25  1  0.562525  0.569755  0.890099  1
  O  O26  1  0.562525  0.930245  0.390099  1
  O  O27  1  0.690517  0.906544  0.882990  1
  O  O28  1  0.653180  0.240133  0.129819  1
  O  O29  1  0.653180  0.259867  0.629819  1
  O  O30  1  0.846820  0.759867  0.129819  1
  O  O31  1  0.846820  0.740133  0.629819  1
  O  O32  1  0.809483  0.093456  0.882990  1
  O  O33  1  0.937475  0.430245  0.890099  1
  O  O34  1  0.809483  0.406544  0.382990  1
  O  O35  1  0.937475  0.069755  0.390099  1
