# generated using pymatgen
data_VCr2O6
_symmetry_space_group_name_H-M   'P 1'
_cell_length_a   4.44210393
_cell_length_b   16.65831781
_cell_length_c   4.91906694
_cell_angle_alpha   90.00001414
_cell_angle_beta   89.99818196
_cell_angle_gamma   90.00011449
_symmetry_Int_Tables_number   1
_chemical_formula_structural   VCr2O6
_chemical_formula_sum   'V4 Cr8 O24'
_cell_volume   364.00101209
_cell_formula_units_Z   4
loop_
 _symmetry_equiv_pos_site_id
 _symmetry_equiv_pos_as_xyz
  1  'x, y, z'
loop_
 _atom_site_type_symbol
 _atom_site_label
 _atom_site_symmetry_multiplicity
 _atom_site_fract_x
 _atom_site_fract_y
 _atom_site_fract_z
 _atom_site_occupancy
  V  V0  1  -0.000004  0.387698  0.250001  1
  V  V1  1  0.000005  0.612332  0.750002  1
  V  V2  1  0.500004  0.112308  0.750000  1
  V  V3  1  0.499994  0.887690  0.249998  1
  Cr  Cr4  1  -0.000002  0.050482  0.249999  1
  Cr  Cr5  1  0.000003  0.282381  0.749997  1
  Cr  Cr6  1  -0.000004  0.717568  0.250003  1
  Cr  Cr7  1  -0.000002  0.949520  0.749995  1
  Cr  Cr8  1  0.499996  0.217584  0.249998  1
  Cr  Cr9  1  0.499999  0.550467  0.250004  1
  Cr  Cr10  1  0.500005  0.782430  0.750004  1
  Cr  Cr11  1  0.499999  0.449531  0.750004  1
  O  O12  1  0.239573  0.041449  0.591954  1
  O  O13  1  0.239530  0.958532  0.091977  1
  O  O14  1  0.274916  0.205772  0.587358  1
  O  O15  1  0.274907  0.794212  0.087380  1
  O  O16  1  0.225065  0.371547  0.569869  1
  O  O17  1  0.225104  0.628461  0.069892  1
  O  O18  1  0.274947  0.128440  0.069855  1
  O  O19  1  0.274879  0.871550  0.569877  1
  O  O20  1  0.225051  0.294222  0.087390  1
  O  O21  1  0.225087  0.705803  0.587384  1
  O  O22  1  0.260430  0.458545  0.091958  1
  O  O23  1  0.260483  0.541471  0.591965  1
  O  O24  1  0.739569  0.458544  0.408048  1
  O  O25  1  0.739517  0.541472  0.908040  1
  O  O26  1  0.774950  0.294222  0.412609  1
  O  O27  1  0.774917  0.705803  0.912613  1
  O  O28  1  0.725051  0.128439  0.430144  1
  O  O29  1  0.725125  0.871550  0.930118  1
  O  O30  1  0.774939  0.371547  0.930134  1
  O  O31  1  0.774897  0.628461  0.430109  1
  O  O32  1  0.725081  0.205772  0.912641  1
  O  O33  1  0.725098  0.794213  0.412618  1
  O  O34  1  0.760423  0.041449  0.908043  1
  O  O35  1  0.760470  0.958533  0.408018  1
