# generated using pymatgen
data_V2Cu2O7
_symmetry_space_group_name_H-M   'P 1'
_cell_length_a   5.49998302
_cell_length_b   5.49998303
_cell_length_c   10.85599964
_cell_angle_alpha   99.98335971
_cell_angle_beta   99.98335974
_cell_angle_gamma   108.39867942
_symmetry_Int_Tables_number   1
_chemical_formula_structural   V2Cu2O7
_chemical_formula_sum   'V4 Cu4 O14'
_cell_volume   297.60694821
_cell_formula_units_Z   2
loop_
 _symmetry_equiv_pos_site_id
 _symmetry_equiv_pos_as_xyz
  1  'x, y, z'
loop_
 _atom_site_type_symbol
 _atom_site_label
 _atom_site_symmetry_multiplicity
 _atom_site_fract_x
 _atom_site_fract_y
 _atom_site_fract_z
 _atom_site_occupancy
  O  O0  1  0.099609  0.099609  0.000000  1
  O  O1  1  0.849609  0.349609  0.500000  1
  O  O2  1  0.779815  0.978340  0.176477  1
  O  O3  1  0.801863  0.603338  0.823523  1
  O  O4  1  0.728340  0.029815  0.676477  1
  O  O5  1  0.353338  0.051863  0.323523  1
  O  O6  1  0.130700  0.516223  0.215599  1
  O  O7  1  0.300623  0.915101  0.784401  1
  O  O8  1  0.424881  0.525573  0.500962  1
  O  O9  1  0.024610  0.923918  0.499038  1
  O  O10  1  0.275573  0.674881  0.000962  1
  O  O11  1  0.673918  0.274610  0.999038  1
  O  O12  1  0.665101  0.550623  0.284401  1
  O  O13  1  0.266223  0.380700  0.715599  1
  V  V14  1  0.911921  0.218259  0.099121  1
  V  V15  1  0.119139  0.812800  0.900879  1
  V  V16  1  0.968259  0.161921  0.599121  1
  V  V17  1  0.562800  0.369139  0.400879  1
  Cu  Cu18  1  0.459492  0.702745  0.172797  1
  Cu  Cu19  1  0.529948  0.286695  0.827203  1
  Cu  Cu20  1  0.452745  0.709492  0.672797  1
  Cu  Cu21  1  0.036695  0.779948  0.327203  1
