# generated using pymatgen
data_V2Cu3O8
_symmetry_space_group_name_H-M   'P 1'
_cell_length_a   6.29153146
_cell_length_b   6.65809564
_cell_length_c   8.03949043
_cell_angle_alpha   90.00000000
_cell_angle_beta   90.00000000
_cell_angle_gamma   108.91539109
_symmetry_Int_Tables_number   1
_chemical_formula_structural   V2Cu3O8
_chemical_formula_sum   'V4 Cu6 O16'
_cell_volume   318.58497239
_cell_formula_units_Z   2
loop_
 _symmetry_equiv_pos_site_id
 _symmetry_equiv_pos_as_xyz
  1  'x, y, z'
loop_
 _atom_site_type_symbol
 _atom_site_label
 _atom_site_symmetry_multiplicity
 _atom_site_fract_x
 _atom_site_fract_y
 _atom_site_fract_z
 _atom_site_occupancy
  V  V0  1  0.748817  0.852332  0.383967  1
  V  V1  1  0.748817  0.352332  0.116033  1
  V  V2  1  0.251183  0.647668  0.883967  1
  V  V3  1  0.251183  0.147668  0.616033  1
  Cu  Cu4  1  0.264449  0.392570  0.241480  1
  Cu  Cu5  1  0.000000  0.000000  0.000000  1
  Cu  Cu6  1  0.264449  0.892570  0.258520  1
  Cu  Cu7  1  0.735551  0.107430  0.741480  1
  Cu  Cu8  1  0.735551  0.607430  0.758520  1
  Cu  Cu9  1  0.000000  0.500000  0.500000  1
  O  O10  1  0.771915  0.142024  0.986583  1
  O  O11  1  0.247358  0.937018  0.493441  1
  O  O12  1  0.503646  0.233894  0.723327  1
  O  O13  1  0.228085  0.357976  0.486583  1
  O  O14  1  0.976792  0.949473  0.235633  1
  O  O15  1  0.752642  0.562982  0.993441  1
  O  O16  1  0.496354  0.766106  0.276673  1
  O  O17  1  0.247358  0.437018  0.006559  1
  O  O18  1  0.228085  0.857976  0.013417  1
  O  O19  1  0.496354  0.266106  0.223327  1
  O  O20  1  0.771915  0.642024  0.513417  1
  O  O21  1  0.752642  0.062982  0.506559  1
  O  O22  1  0.503646  0.733894  0.776673  1
  O  O23  1  0.976792  0.449473  0.264367  1
  O  O24  1  0.023208  0.550527  0.735633  1
  O  O25  1  0.023208  0.050527  0.764367  1
