# generated using pymatgen
data_V2WO6
_symmetry_space_group_name_H-M   'P 1'
_cell_length_a   4.69122644
_cell_length_b   4.69122644
_cell_length_c   9.21137095
_cell_angle_alpha   90.00000000
_cell_angle_beta   90.00000000
_cell_angle_gamma   90.00000000
_symmetry_Int_Tables_number   1
_chemical_formula_structural   V2WO6
_chemical_formula_sum   'V4 W2 O12'
_cell_volume   202.72021809
_cell_formula_units_Z   2
loop_
 _symmetry_equiv_pos_site_id
 _symmetry_equiv_pos_as_xyz
  1  'x, y, z'
loop_
 _atom_site_type_symbol
 _atom_site_label
 _atom_site_symmetry_multiplicity
 _atom_site_fract_x
 _atom_site_fract_y
 _atom_site_fract_z
 _atom_site_occupancy
  O  O0  1  0.696068  0.696068  0.658863  1
  O  O1  1  0.303930  0.303930  0.658863  1
  O  O2  1  0.696068  0.696068  0.341137  1
  O  O3  1  0.196069  0.803931  0.158862  1
  O  O4  1  0.803931  0.196069  0.158862  1
  O  O5  1  0.803931  0.196069  0.841138  1
  O  O6  1  0.294277  0.294277  0.000000  1
  O  O7  1  0.205724  0.794276  0.499999  1
  O  O8  1  0.794276  0.205724  0.499999  1
  O  O9  1  0.196069  0.803931  0.841138  1
  O  O10  1  0.303930  0.303930  0.341137  1
  O  O11  1  0.705723  0.705723  0.000000  1
  V  V12  1  0.000000  0.000000  0.666189  1
  V  V13  1  0.499999  0.499999  0.166190  1
  V  V14  1  0.499999  0.499999  0.833810  1
  V  V15  1  0.000000  0.000000  0.333811  1
  W  W16  1  0.499999  0.499999  0.499999  1
  W  W17  1  0.000000  0.000000  0.000000  1
