# generated using pymatgen
data_V2ZnO4
_symmetry_space_group_name_H-M   'P 1'
_cell_length_a   6.06438011
_cell_length_b   6.05582234
_cell_length_c   6.06622306
_cell_angle_alpha   60.07545360
_cell_angle_beta   59.97953022
_cell_angle_gamma   59.72797481
_symmetry_Int_Tables_number   1
_chemical_formula_structural   V2ZnO4
_chemical_formula_sum   'V4 Zn2 O8'
_cell_volume   157.26827123
_cell_formula_units_Z   2
loop_
 _symmetry_equiv_pos_site_id
 _symmetry_equiv_pos_as_xyz
  1  'x, y, z'
loop_
 _atom_site_type_symbol
 _atom_site_label
 _atom_site_symmetry_multiplicity
 _atom_site_fract_x
 _atom_site_fract_y
 _atom_site_fract_z
 _atom_site_occupancy
  V  V0  1  0.500000  0.000001  0.499998  1
  V  V1  1  -0.000000  0.500002  0.500000  1
  V  V2  1  0.499999  0.500000  0.000000  1
  V  V3  1  0.500001  0.500000  0.500001  1
  Zn  Zn4  1  0.875224  0.875429  0.874243  1
  Zn  Zn5  1  0.124777  0.124569  0.125757  1
  O  O6  1  0.737089  0.742847  0.739366  1
  O  O7  1  0.266059  0.258225  0.717276  1
  O  O8  1  0.253670  0.719116  0.262638  1
  O  O9  1  0.718500  0.268430  0.255013  1
  O  O10  1  0.746331  0.280882  0.737364  1
  O  O11  1  0.281500  0.731570  0.744988  1
  O  O12  1  0.262909  0.257154  0.260635  1
  O  O13  1  0.733941  0.741776  0.282722  1
