# generated using pymatgen
data_Cr2Ag2O7
_symmetry_space_group_name_H-M   'P 1'
_cell_length_a   7.39610061
_cell_length_b   6.86508462
_cell_length_c   7.33593591
_cell_angle_alpha   95.87308151
_cell_angle_beta   117.51399434
_cell_angle_gamma   90.23165278
_symmetry_Int_Tables_number   1
_chemical_formula_structural   Cr2Ag2O7
_chemical_formula_sum   'Cr4 Ag4 O14'
_cell_volume   328.06240923
_cell_formula_units_Z   2
loop_
 _symmetry_equiv_pos_site_id
 _symmetry_equiv_pos_as_xyz
  1  'x, y, z'
loop_
 _atom_site_type_symbol
 _atom_site_label
 _atom_site_symmetry_multiplicity
 _atom_site_fract_x
 _atom_site_fract_y
 _atom_site_fract_z
 _atom_site_occupancy
  O  O0  1  0.585033  0.140337  0.681737  1
  O  O1  1  0.414967  0.859663  0.318263  1
  O  O2  1  0.880743  0.924450  0.648483  1
  O  O3  1  0.119257  0.075550  0.351517  1
  O  O4  1  0.795983  0.278396  0.497240  1
  O  O5  1  0.204017  0.721604  0.502760  1
  O  O6  1  0.643042  0.860434  0.027817  1
  O  O7  1  0.356958  0.139566  0.972183  1
  O  O8  1  0.013498  0.736129  0.074517  1
  O  O9  1  0.986502  0.263871  0.925483  1
  O  O10  1  0.352468  0.429563  0.246452  1
  O  O11  1  0.647532  0.570437  0.753548  1
  O  O12  1  0.254661  0.495156  0.848006  1
  O  O13  1  0.745339  0.504844  0.151994  1
  Cr  Cr14  1  0.802988  0.146974  0.676901  1
  Cr  Cr15  1  0.197012  0.853026  0.323099  1
  Cr  Cr16  1  0.755994  0.662076  0.998400  1
  Cr  Cr17  1  0.244006  0.337924  0.001600  1
  Ag  Ag18  1  0.311664  0.375743  0.546911  1
  Ag  Ag19  1  0.688336  0.624257  0.453089  1
  Ag  Ag20  1  0.245300  0.828784  0.839912  1
  Ag  Ag21  1  0.754700  0.171216  0.160088  1
