# generated using pymatgen
data_V2Zn2O7
_symmetry_space_group_name_H-M   'P 1'
_cell_length_a   5.70219229
_cell_length_b   5.70219228
_cell_length_c   10.34215737
_cell_angle_alpha   104.90294910
_cell_angle_beta   104.90294910
_cell_angle_gamma   94.91703257
_symmetry_Int_Tables_number   1
_chemical_formula_structural   V2Zn2O7
_chemical_formula_sum   'V4 Zn4 O14'
_cell_volume   309.85328366
_cell_formula_units_Z   2
loop_
 _symmetry_equiv_pos_site_id
 _symmetry_equiv_pos_as_xyz
  1  'x, y, z'
loop_
 _atom_site_type_symbol
 _atom_site_label
 _atom_site_symmetry_multiplicity
 _atom_site_fract_x
 _atom_site_fract_y
 _atom_site_fract_z
 _atom_site_occupancy
  O  O0  1  0.694170  0.027219  0.381766  1
  O  O1  1  0.972781  0.305830  0.118234  1
  O  O2  1  0.305830  0.972781  0.618234  1
  O  O3  1  0.027219  0.694170  0.881766  1
  O  O4  1  0.910389  0.606351  0.396845  1
  O  O5  1  0.393649  0.089611  0.103155  1
  O  O6  1  0.089611  0.393649  0.603155  1
  O  O7  1  0.606351  0.910389  0.896845  1
  O  O8  1  0.931279  0.068721  0.750000  1
  O  O9  1  0.068721  0.931279  0.250000  1
  O  O10  1  0.626484  0.588704  0.636743  1
  O  O11  1  0.411296  0.373516  0.863257  1
  O  O12  1  0.373516  0.411296  0.363257  1
  O  O13  1  0.588704  0.626484  0.136743  1
  V  V14  1  0.811016  0.796859  0.292726  1
  V  V15  1  0.203141  0.188984  0.207274  1
  V  V16  1  0.188984  0.203141  0.707274  1
  V  V17  1  0.796859  0.811016  0.792726  1
  Zn  Zn18  1  0.382311  0.729653  0.977342  1
  Zn  Zn19  1  0.270348  0.617689  0.522658  1
  Zn  Zn20  1  0.617689  0.270348  0.022658  1
  Zn  Zn21  1  0.729653  0.382311  0.477342  1
