# generated using pymatgen
data_V5FeO12
_symmetry_space_group_name_H-M   'P 1'
_cell_length_a   6.83536061
_cell_length_b   6.83536110
_cell_length_c   5.87572284
_cell_angle_alpha   75.10207963
_cell_angle_beta   104.89791757
_cell_angle_gamma   95.57857232
_symmetry_Int_Tables_number   1
_chemical_formula_structural   V5FeO12
_chemical_formula_sum   'V5 Fe1 O12'
_cell_volume   256.23816231
_cell_formula_units_Z   1
loop_
 _symmetry_equiv_pos_site_id
 _symmetry_equiv_pos_as_xyz
  1  'x, y, z'
loop_
 _atom_site_type_symbol
 _atom_site_label
 _atom_site_symmetry_multiplicity
 _atom_site_fract_x
 _atom_site_fract_y
 _atom_site_fract_z
 _atom_site_occupancy
  V  V0  1  0.915083  0.915083  0.250000  1
  V  V1  1  0.207704  0.612597  0.758861  1
  V  V2  1  0.391779  0.794633  0.263951  1
  V  V3  1  0.612597  0.207704  0.741139  1
  V  V4  1  0.794633  0.391779  0.236049  1
  Fe  Fe5  1  0.085816  0.085816  0.750000  1
  O  O6  1  0.036006  0.806893  0.632845  1
  O  O7  1  0.090245  0.382807  0.779301  1
  O  O8  1  0.187792  0.958859  0.154585  1
  O  O9  1  0.370650  0.641156  0.558667  1
  O  O10  1  0.382807  0.090245  0.720699  1
  O  O11  1  0.348638  0.635078  0.052480  1
  O  O12  1  0.641156  0.370650  0.941333  1
  O  O13  1  0.632899  0.901365  0.286885  1
  O  O14  1  0.635078  0.348638  0.447520  1
  O  O15  1  0.806893  0.036006  0.867155  1
  O  O16  1  0.901365  0.632899  0.213115  1
  O  O17  1  0.958859  0.187792  0.345415  1
