# generated using pymatgen
data_V5Fe3O16
_symmetry_space_group_name_H-M   'P 1'
_cell_length_a   4.52903189
_cell_length_b   4.93098202
_cell_length_c   11.10766421
_cell_angle_alpha   89.94458299
_cell_angle_beta   89.83734313
_cell_angle_gamma   90.45088390
_symmetry_Int_Tables_number   1
_chemical_formula_structural   V5Fe3O16
_chemical_formula_sum   'V5 Fe3 O16'
_cell_volume   248.05394004
_cell_formula_units_Z   1
loop_
 _symmetry_equiv_pos_site_id
 _symmetry_equiv_pos_as_xyz
  1  'x, y, z'
loop_
 _atom_site_type_symbol
 _atom_site_label
 _atom_site_symmetry_multiplicity
 _atom_site_fract_x
 _atom_site_fract_y
 _atom_site_fract_z
 _atom_site_occupancy
  V  V0  1  0.997216  0.741814  0.413565  1
  V  V1  1  0.996969  0.750752  0.915504  1
  V  V2  1  0.502705  0.241564  0.334607  1
  V  V3  1  0.497759  0.751430  0.660648  1
  V  V4  1  0.003968  0.250974  0.084533  1
  Fe  Fe5  1  0.498996  0.249813  0.833792  1
  Fe  Fe6  1  0.498775  0.751305  0.166183  1
  Fe  Fe7  1  0.002384  0.251294  0.580419  1
  O  O8  1  0.220930  0.933683  0.056863  1
  O  O9  1  0.236930  0.904625  0.561783  1
  O  O10  1  0.219262  0.432386  0.944873  1
  O  O11  1  0.226923  0.417240  0.436552  1
  O  O12  1  0.272641  0.916140  0.312465  1
  O  O13  1  0.259061  0.903123  0.812904  1
  O  O14  1  0.263795  0.400768  0.188238  1
  O  O15  1  0.284554  0.436427  0.692016  1
  O  O16  1  0.730122  0.588398  0.315372  1
  O  O17  1  0.741352  0.596486  0.813582  1
  O  O18  1  0.738179  0.099500  0.186629  1
  O  O19  1  0.713685  0.064380  0.690584  1
  O  O20  1  0.781202  0.567803  0.057815  1
  O  O21  1  0.761197  0.595495  0.563283  1
  O  O22  1  0.770431  0.088008  0.433869  1
  O  O23  1  0.780964  0.066594  0.943921  1
