# generated using pymatgen
data_VCo3
_symmetry_space_group_name_H-M   'P 1'
_cell_length_a   7.94058879
_cell_length_b   7.94058960
_cell_length_c   9.48483252
_cell_angle_alpha   90.00000000
_cell_angle_beta   90.00000000
_cell_angle_gamma   120.00000045
_symmetry_Int_Tables_number   1
_chemical_formula_structural   VCo3
_chemical_formula_sum   'V6 Co18'
_cell_volume   517.92366237
_cell_formula_units_Z   6
loop_
 _symmetry_equiv_pos_site_id
 _symmetry_equiv_pos_as_xyz
  1  'x, y, z'
loop_
 _atom_site_type_symbol
 _atom_site_label
 _atom_site_symmetry_multiplicity
 _atom_site_fract_x
 _atom_site_fract_y
 _atom_site_fract_z
 _atom_site_occupancy
  V  V0  1  0.666667  0.333333  0.366873  1
  V  V1  1  0.333333  0.666667  0.633127  1
  V  V2  1  0.000000  0.000000  0.699962  1
  V  V3  1  0.666667  0.333333  0.633127  1
  V  V4  1  0.000000  0.000000  0.300038  1
  V  V5  1  0.333333  0.666667  0.366873  1
  Co  Co6  1  0.500000  0.500000  0.709793  1
  Co  Co7  1  0.336217  0.168108  0.380560  1
  Co  Co8  1  0.831892  0.168108  0.380560  1
  Co  Co9  1  0.500000  0.000000  0.290207  1
  Co  Co10  1  0.831892  0.168108  0.619440  1
  Co  Co11  1  0.336217  0.168108  0.619440  1
  Co  Co12  1  0.168108  0.336217  0.380560  1
  Co  Co13  1  0.831892  0.663783  0.380560  1
  Co  Co14  1  0.500000  0.500000  0.290207  1
  Co  Co15  1  0.663783  0.831892  0.619440  1
  Co  Co16  1  0.663783  0.831892  0.380560  1
  Co  Co17  1  0.500000  0.000000  0.709793  1
  Co  Co18  1  0.168108  0.831892  0.619440  1
  Co  Co19  1  0.168108  0.831892  0.380560  1
  Co  Co20  1  0.168108  0.336217  0.619440  1
  Co  Co21  1  0.831892  0.663783  0.619440  1
  Co  Co22  1  0.000000  0.500000  0.709793  1
  Co  Co23  1  0.000000  0.500000  0.290207  1
