# generated using pymatgen
data_VFeO4
_symmetry_space_group_name_H-M   'P 1'
_cell_length_a   6.77938370
_cell_length_b   8.09367392
_cell_length_c   9.39315631
_cell_angle_alpha   96.43399539
_cell_angle_beta   106.57167517
_cell_angle_gamma   101.55990843
_symmetry_Int_Tables_number   1
_chemical_formula_structural   VFeO4
_chemical_formula_sum   'V6 Fe6 O24'
_cell_volume   476.05247380
_cell_formula_units_Z   6
loop_
 _symmetry_equiv_pos_site_id
 _symmetry_equiv_pos_as_xyz
  1  'x, y, z'
loop_
 _atom_site_type_symbol
 _atom_site_label
 _atom_site_symmetry_multiplicity
 _atom_site_fract_x
 _atom_site_fract_y
 _atom_site_fract_z
 _atom_site_occupancy
  Fe  Fe0  1  0.751687  0.700653  0.408257  1
  Fe  Fe1  1  0.248313  0.299347  0.591743  1
  Fe  Fe2  1  0.464115  0.888342  0.213305  1
  Fe  Fe3  1  0.535885  0.111658  0.786695  1
  Fe  Fe4  1  0.971069  0.306535  0.010938  1
  Fe  Fe5  1  0.028931  0.693465  0.989062  1
  V  V6  1  0.005757  -0.001424  0.262247  1
  V  V7  1  0.994243  1.001424  0.737753  1
  V  V8  1  0.198882  0.598245  0.349803  1
  V  V9  1  0.801118  0.401756  0.650197  1
  V  V10  1  0.524649  0.305736  0.128333  1
  V  V11  1  0.475351  0.694264  0.871667  1
  O  O12  1  0.649559  0.493556  0.253098  1
  O  O13  1  0.350441  0.506444  0.746902  1
  O  O14  1  0.256474  0.433264  0.436052  1
  O  O15  1  0.743526  0.566736  0.563948  1
  O  O16  1  0.048243  0.698632  0.430021  1
  O  O17  1  0.951757  0.301368  0.569979  1
  O  O18  1  0.160557  0.096769  0.438135  1
  O  O19  1  0.839443  0.903231  0.561865  1
  O  O20  1  0.454036  0.737616  0.365067  1
  O  O21  1  0.545964  0.262384  0.634933  1
  O  O22  1  0.759783  0.862335  0.266267  1
  O  O23  1  0.240217  0.137665  0.733733  1
  O  O24  1  0.528603  0.128493  0.218084  1
  O  O25  1  0.471397  0.871507  0.781916  1
  O  O26  1  0.151490  0.876052  0.178820  1
  O  O27  1  0.848510  0.123948  0.821180  1
  O  O28  1  0.354084  0.726503  0.019822  1
  O  O29  1  0.645916  0.273497  0.980178  1
  O  O30  1  0.264978  0.300572  0.037276  1
  O  O31  1  0.735022  0.699428  0.962724  1
  O  O32  1  0.948654  0.148079  0.155707  1
  O  O33  1  0.051346  0.851921  0.844293  1
  O  O34  1  0.056481  0.527680  0.151073  1
  O  O35  1  0.943519  0.472320  0.848927  1
