# generated using pymatgen
data_CrAgO4
_symmetry_space_group_name_H-M   'P 1'
_cell_length_a   5.81207809
_cell_length_b   8.80900543
_cell_length_c   7.93939050
_cell_angle_alpha   90.00000000
_cell_angle_beta   104.22533731
_cell_angle_gamma   90.00000000
_symmetry_Int_Tables_number   1
_chemical_formula_structural   CrAgO4
_chemical_formula_sum   'Cr4 Ag4 O16'
_cell_volume   394.02172804
_cell_formula_units_Z   4
loop_
 _symmetry_equiv_pos_site_id
 _symmetry_equiv_pos_as_xyz
  1  'x, y, z'
loop_
 _atom_site_type_symbol
 _atom_site_label
 _atom_site_symmetry_multiplicity
 _atom_site_fract_x
 _atom_site_fract_y
 _atom_site_fract_z
 _atom_site_occupancy
  Cr  Cr0  1  0.194457  0.544036  0.284315  1
  Cr  Cr1  1  0.305543  0.044036  0.215685  1
  Cr  Cr2  1  0.694457  0.955964  0.784315  1
  Cr  Cr3  1  0.805543  0.455964  0.715685  1
  Ag  Ag4  1  0.260070  0.708489  0.898979  1
  Ag  Ag5  1  0.239930  0.208489  0.601021  1
  Ag  Ag6  1  0.760070  0.791511  0.398979  1
  Ag  Ag7  1  0.739930  0.291511  0.101021  1
  O  O8  1  0.034651  0.696874  0.280450  1
  O  O9  1  0.950107  0.610429  0.684699  1
  O  O10  1  0.943276  0.927666  0.976384  1
  O  O11  1  0.206130  0.031507  0.392365  1
  O  O12  1  0.293870  0.531507  0.107635  1
  O  O13  1  0.556724  0.427665  0.523616  1
  O  O14  1  0.549893  0.110429  0.815301  1
  O  O15  1  0.534651  0.803126  0.780450  1
  O  O16  1  0.465349  0.196874  0.219550  1
  O  O17  1  0.450107  0.889571  0.184699  1
  O  O18  1  0.443276  0.572334  0.476384  1
  O  O19  1  0.706130  0.468493  0.892365  1
  O  O20  1  0.793870  0.968493  0.607635  1
  O  O21  1  0.056724  0.072334  0.023616  1
  O  O22  1  0.049893  0.389571  0.315301  1
  O  O23  1  0.965349  0.303126  0.719550  1
