# generated using pymatgen
data_V7(WO5)6
_symmetry_space_group_name_H-M   'P 1'
_cell_length_a   5.22558043
_cell_length_b   5.22567484
_cell_length_c   23.27917251
_cell_angle_alpha   90.18353865
_cell_angle_beta   90.50681320
_cell_angle_gamma   59.81602710
_symmetry_Int_Tables_number   1
_chemical_formula_structural   V7(WO5)6
_chemical_formula_sum   'V7 W6 O30'
_cell_volume   549.47704090
_cell_formula_units_Z   1
loop_
 _symmetry_equiv_pos_site_id
 _symmetry_equiv_pos_as_xyz
  1  'x, y, z'
loop_
 _atom_site_type_symbol
 _atom_site_label
 _atom_site_symmetry_multiplicity
 _atom_site_fract_x
 _atom_site_fract_y
 _atom_site_fract_z
 _atom_site_occupancy
  V  V0  1  0.324429  0.336246  0.286521  1
  V  V1  1  0.321420  0.343761  0.009476  1
  V  V2  1  0.342274  0.338147  0.889097  1
  V  V3  1  0.679694  0.658452  0.983854  1
  V  V4  1  0.668798  0.674183  0.716644  1
  V  V5  1  0.341174  0.331199  0.699961  1
  V  V6  1  0.664982  0.664677  0.303542  1
  W  W7  1  0.331842  0.335997  0.405769  1
  W  W8  1  0.658615  0.669274  0.108041  1
  W  W9  1  0.672362  0.662675  0.597877  1
  W  W10  1  0.993277  0.996963  0.203765  1
  W  W11  1  0.001429  0.000464  0.501869  1
  W  W12  1  0.994873  0.013039  0.804610  1
  O  O13  1  0.934880  0.729665  0.151874  1
  O  O14  1  0.331643  0.922159  0.549161  1
  O  O15  1  0.016601  0.580398  0.349166  1
  O  O16  1  0.989205  0.675066  0.745536  1
  O  O17  1  0.399406  0.041583  0.953591  1
  O  O18  1  0.271052  0.676276  0.842319  1
  O  O19  1  0.253563  0.665991  0.452522  1
  O  O20  1  0.595452  0.980981  0.652097  1
  O  O21  1  0.313027  0.692658  0.250512  1
  O  O22  1  0.967323  0.415947  0.049619  1
  O  O23  1  0.405810  0.589735  0.054589  1
  O  O24  1  0.674734  0.049040  0.844569  1
  O  O25  1  0.431585  0.597653  0.651514  1
  O  O26  1  0.697710  0.991390  0.249413  1
  O  O27  1  0.082492  0.248549  0.450978  1
  O  O28  1  0.916936  0.752937  0.549025  1
  O  O29  1  0.318888  0.987830  0.746598  1
  O  O30  1  0.571984  0.402397  0.348626  1
  O  O31  1  0.329498  0.927106  0.152970  1
  O  O32  1  0.601739  0.401827  0.951400  1
  O  O33  1  0.034902  0.591601  0.951121  1
  O  O34  1  0.679648  0.316064  0.746272  1
  O  O35  1  0.403527  0.024485  0.346933  1
  O  O36  1  0.745041  0.337407  0.547655  1
  O  O37  1  0.742155  0.321349  0.152855  1
  O  O38  1  0.595389  0.968863  0.052543  1
  O  O39  1  0.996617  0.305335  0.251098  1
  O  O40  1  0.988470  0.419447  0.649844  1
  O  O41  1  0.670152  0.078007  0.451036  1
  O  O42  1  0.045099  0.283477  0.843532  1
