# generated using pymatgen
data_V4(AgO4)3
_symmetry_space_group_name_H-M   'P 1'
_cell_length_a   9.06192267
_cell_length_b   8.91939168
_cell_length_c   7.21798250
_cell_angle_alpha   66.37557427
_cell_angle_beta   78.47875014
_cell_angle_gamma   73.11798803
_symmetry_Int_Tables_number   1
_chemical_formula_structural   V4(AgO4)3
_chemical_formula_sum   'V8 Ag6 O24'
_cell_volume   509.16052131
_cell_formula_units_Z   2
loop_
 _symmetry_equiv_pos_site_id
 _symmetry_equiv_pos_as_xyz
  1  'x, y, z'
loop_
 _atom_site_type_symbol
 _atom_site_label
 _atom_site_symmetry_multiplicity
 _atom_site_fract_x
 _atom_site_fract_y
 _atom_site_fract_z
 _atom_site_occupancy
  V  V0  1  0.960096  0.708544  0.657365  1
  V  V1  1  0.957386  0.707919  0.155389  1
  V  V2  1  0.435890  0.164233  0.057654  1
  V  V3  1  0.431429  0.157305  0.563832  1
  V  V4  1  0.335298  0.503849  0.165514  1
  V  V5  1  0.337476  0.502196  0.663844  1
  V  V6  1  0.062215  0.373915  0.046857  1
  V  V7  1  0.065298  0.370563  0.547946  1
  Ag  Ag8  1  0.777003  0.057273  0.279302  1
  Ag  Ag9  1  0.797690  0.067042  0.764911  1
  Ag  Ag10  1  0.696417  0.437620  0.362613  1
  Ag  Ag11  1  0.697941  0.438709  0.851080  1
  Ag  Ag12  1  0.606551  0.806076  0.945820  1
  Ag  Ag13  1  0.196278  0.896391  0.261184  1
  O  O14  1  0.932792  0.924528  0.542483  1
  O  O15  1  0.930420  0.922907  0.071757  1
  O  O16  1  0.771419  0.684502  0.733296  1
  O  O17  1  0.768815  0.682916  0.199788  1
  O  O18  1  0.880326  0.343294  0.108421  1
  O  O19  1  0.884560  0.332229  0.611714  1
  O  O20  1  0.454748  0.953698  0.134815  1
  O  O21  1  0.464296  0.949844  0.678792  1
  O  O22  1  0.633620  0.180245  0.003540  1
  O  O23  1  0.630506  0.185737  0.492768  1
  O  O24  1  0.519643  0.529149  0.604961  1
  O  O25  1  0.519664  0.530862  0.105870  1
  O  O26  1  0.401386  0.230425  0.783329  1
  O  O27  1  0.399193  0.217245  0.289834  1
  O  O28  1  0.313900  0.438647  0.450715  1
  O  O29  1  0.315043  0.436399  0.953988  1
  O  O30  1  0.220005  0.701017  0.105388  1
  O  O31  1  0.217316  0.699759  0.586407  1
  O  O32  1  0.188354  0.178771  0.612656  1
  O  O33  1  0.180375  0.176253  0.114981  1
  O  O34  1  0.081881  0.439633  0.759904  1
  O  O35  1  0.082712  0.440069  0.258489  1
  O  O36  1  0.993822  0.644813  0.429071  1
  O  O37  1  0.010239  0.653423  0.921724  1
