# generated using pymatgen
data_CrAgO4
_symmetry_space_group_name_H-M   'P 1'
_cell_length_a   5.50753087
_cell_length_b   8.36936140
_cell_length_c   7.25197126
_cell_angle_alpha   90.00000000
_cell_angle_beta   93.51749889
_cell_angle_gamma   90.00000000
_symmetry_Int_Tables_number   1
_chemical_formula_structural   CrAgO4
_chemical_formula_sum   'Cr4 Ag4 O16'
_cell_volume   333.64636650
_cell_formula_units_Z   4
loop_
 _symmetry_equiv_pos_site_id
 _symmetry_equiv_pos_as_xyz
  1  'x, y, z'
loop_
 _atom_site_type_symbol
 _atom_site_label
 _atom_site_symmetry_multiplicity
 _atom_site_fract_x
 _atom_site_fract_y
 _atom_site_fract_z
 _atom_site_occupancy
  Cr  Cr0  1  0.233693  0.687424  0.843440  1
  Cr  Cr1  1  0.266307  0.187424  0.656560  1
  Cr  Cr2  1  0.733693  0.812576  0.343440  1
  Cr  Cr3  1  0.766307  0.312576  0.156560  1
  Ag  Ag4  1  0.251440  0.528121  0.336066  1
  Ag  Ag5  1  0.248560  0.028121  0.163934  1
  Ag  Ag6  1  0.751440  0.971879  0.836066  1
  Ag  Ag7  1  0.748560  0.471879  0.663934  1
  O  O8  1  0.014403  0.773881  0.285502  1
  O  O9  1  0.075437  0.606327  0.658365  1
  O  O10  1  0.093391  0.860497  0.907610  1
  O  O11  1  0.256457  0.058200  0.486861  1
  O  O12  1  0.243543  0.558200  0.013139  1
  O  O13  1  0.406609  0.360497  0.592390  1
  O  O14  1  0.424563  0.106327  0.841635  1
  O  O15  1  0.514403  0.726119  0.785502  1
  O  O16  1  0.485597  0.273881  0.214498  1
  O  O17  1  0.575437  0.893673  0.158365  1
  O  O18  1  0.593391  0.639503  0.407610  1
  O  O19  1  0.756457  0.441800  0.986861  1
  O  O20  1  0.743543  0.941800  0.513139  1
  O  O21  1  0.906609  0.139503  0.092390  1
  O  O22  1  0.924563  0.393673  0.341635  1
  O  O23  1  0.985597  0.226119  0.714498  1
