# generated using pymatgen
data_V(HgO2)2
_symmetry_space_group_name_H-M   'P 1'
_cell_length_a   3.73899247
_cell_length_b   14.71481504
_cell_length_c   16.87505113
_cell_angle_alpha   90.00000000
_cell_angle_beta   90.00000000
_cell_angle_gamma   90.09214852
_symmetry_Int_Tables_number   1
_chemical_formula_structural   V(HgO2)2
_chemical_formula_sum   'V8 Hg16 O32'
_cell_volume   928.44019369
_cell_formula_units_Z   8
loop_
 _symmetry_equiv_pos_site_id
 _symmetry_equiv_pos_as_xyz
  1  'x, y, z'
loop_
 _atom_site_type_symbol
 _atom_site_label
 _atom_site_symmetry_multiplicity
 _atom_site_fract_x
 _atom_site_fract_y
 _atom_site_fract_z
 _atom_site_occupancy
  O  O0  1  0.002051  0.727734  0.377251  1
  O  O1  1  0.497947  0.772266  0.877251  1
  O  O2  1  0.997948  0.272266  0.622749  1
  O  O3  1  0.502051  0.227734  0.122749  1
  O  O4  1  0.997974  0.623546  0.209755  1
  O  O5  1  0.502026  0.876454  0.709755  1
  O  O6  1  0.002027  0.376454  0.790245  1
  O  O7  1  0.497972  0.123546  0.290245  1
  O  O8  1  0.995947  0.541388  0.393498  1
  O  O9  1  0.504054  0.958612  0.893497  1
  O  O10  1  0.004054  0.458612  0.606502  1
  O  O11  1  0.495945  0.041388  0.106502  1
  O  O12  1  0.562242  0.874067  0.448546  1
  O  O13  1  0.937758  0.625933  0.948545  1
  O  O14  1  0.437759  0.125933  0.551454  1
  O  O15  1  0.062243  0.374067  0.051454  1
  O  O16  1  0.004948  0.792278  0.614233  1
  O  O17  1  0.495053  0.707722  0.114233  1
  O  O18  1  0.995051  0.207722  0.385767  1
  O  O19  1  0.504948  0.292278  0.885767  1
  O  O20  1  0.498238  0.623666  0.296719  1
  O  O21  1  0.001760  0.876334  0.796719  1
  O  O22  1  0.501760  0.376334  0.703281  1
  O  O23  1  0.998239  0.123666  0.203281  1
  O  O24  1  0.498480  0.521125  0.127752  1
  O  O25  1  0.001518  0.978875  0.627752  1
  O  O26  1  0.501518  0.478875  0.872248  1
  O  O27  1  0.998481  0.021125  0.372248  1
  O  O28  1  0.496081  0.624572  0.565165  1
  O  O29  1  0.503917  0.375428  0.434835  1
  O  O30  1  0.003919  0.875428  0.065165  1
  O  O31  1  0.996082  0.124572  0.934835  1
  V  V32  1  0.498398  0.129106  0.172386  1
  V  V33  1  0.001601  0.370894  0.672386  1
  V  V34  1  0.501600  0.870894  0.827614  1
  V  V35  1  0.998398  0.629106  0.327614  1
  V  V36  1  0.998229  0.119089  0.321286  1
  V  V37  1  0.501770  0.380912  0.821286  1
  V  V38  1  0.001770  0.880912  0.678714  1
  V  V39  1  0.498231  0.619088  0.178714  1
  Hg  Hg40  1  0.497797  0.874472  0.321244  1
  Hg  Hg41  1  0.999999  0.500000  0.000000  1
  Hg  Hg42  1  0.499999  0.500000  0.500000  1
  Hg  Hg43  1  0.000000  0.000000  0.000000  1
  Hg  Hg44  1  0.500000  0.000000  0.500000  1
  Hg  Hg45  1  0.002204  0.625528  0.821244  1
  Hg  Hg46  1  0.502204  0.125528  0.678756  1
  Hg  Hg47  1  0.997795  0.374472  0.178756  1
  Hg  Hg48  1  0.499543  0.749701  0.506017  1
  Hg  Hg49  1  0.000458  0.750299  0.006017  1
  Hg  Hg50  1  0.500456  0.250299  0.493983  1
  Hg  Hg51  1  0.999544  0.249701  0.993983  1
  Hg  Hg52  1  0.380694  0.876222  0.168113  1
  Hg  Hg53  1  0.119306  0.623778  0.668113  1
  Hg  Hg54  1  0.619304  0.123778  0.831887  1
  Hg  Hg55  1  0.880695  0.376222  0.331887  1
