# generated using pymatgen
data_Dy3Y5O12
_symmetry_space_group_name_H-M   'P 1'
_cell_length_a   9.26143430
_cell_length_b   9.26368517
_cell_length_c   9.26255073
_cell_angle_alpha   109.46741891
_cell_angle_beta   109.47537956
_cell_angle_gamma   109.47120459
_symmetry_Int_Tables_number   1
_chemical_formula_structural   Dy3Y5O12
_chemical_formula_sum   'Dy6 Y10 O24'
_cell_volume   611.74286957
_cell_formula_units_Z   2
loop_
 _symmetry_equiv_pos_site_id
 _symmetry_equiv_pos_as_xyz
  1  'x, y, z'
loop_
 _atom_site_type_symbol
 _atom_site_label
 _atom_site_symmetry_multiplicity
 _atom_site_fract_x
 _atom_site_fract_y
 _atom_site_fract_z
 _atom_site_occupancy
  Dy  Dy0  1  0.750104  0.282943  0.532897  1
  Dy  Dy1  1  0.249941  0.717308  0.467371  1
  Dy  Dy2  1  0.249956  0.217066  0.967173  1
  Dy  Dy3  1  0.217368  0.967247  0.249962  1
  Dy  Dy4  1  0.282564  0.532696  0.749918  1
  Dy  Dy5  1  0.032910  0.750015  0.782791  1
  Y  Y6  1  0.967527  0.250091  0.217511  1
  Y  Y7  1  0.499770  0.999978  0.999992  1
  Y  Y8  1  0.782746  0.032690  0.749922  1
  Y  Y9  1  0.717370  0.467310  0.250189  1
  Y  Y10  1  0.750070  0.782621  0.032553  1
  Y  Y11  1  0.000183  0.500019  0.999877  1
  Y  Y12  1  0.499988  0.499868  0.499923  1
  Y  Y13  1  0.467168  0.249879  0.717175  1
  Y  Y14  1  0.532471  0.749987  0.282560  1
  Y  Y15  1  0.000144  0.000050  0.500209  1
  O  O16  1  0.760731  0.031816  0.488910  1
  O  O17  1  0.739260  0.228182  0.271102  1
  O  O18  1  0.271317  0.011140  0.042277  1
  O  O19  1  0.969219  0.511391  0.239722  1
  O  O20  1  0.468833  0.229032  0.457296  1
  O  O21  1  0.771807  0.729302  0.260802  1
  O  O22  1  0.042924  0.271829  0.011046  1
  O  O23  1  0.457090  0.468151  0.228927  1
  O  O24  1  0.488376  0.760147  0.030713  1
  O  O25  1  0.729377  0.260865  0.771575  1
  O  O26  1  0.011656  0.042327  0.271754  1
  O  O27  1  0.771068  0.542583  0.531894  1
  O  O28  1  0.229432  0.458102  0.469339  1
  O  O29  1  0.989276  0.957405  0.728503  1
  O  O30  1  0.270554  0.739856  0.228653  1
  O  O31  1  0.510742  0.239184  0.968538  1
  O  O32  1  0.542118  0.531386  0.770634  1
  O  O33  1  0.958171  0.728634  0.988803  1
  O  O34  1  0.530761  0.770532  0.542184  1
  O  O35  1  0.228262  0.270956  0.739817  1
  O  O36  1  0.031159  0.488868  0.760183  1
  O  O37  1  0.728176  0.989031  0.957507  1
  O  O38  1  0.239300  0.968217  0.510723  1
  O  O39  1  0.260109  0.771296  0.729072  1
