# generated using pymatgen
data_Y11Ta5O28
_symmetry_space_group_name_H-M   'P 1'
_cell_length_a   6.45334063
_cell_length_b   13.02979013
_cell_length_c   7.37129516
_cell_angle_alpha   106.42101308
_cell_angle_beta   89.92170712
_cell_angle_gamma   80.49362147
_symmetry_Int_Tables_number   1
_chemical_formula_structural   Y11Ta5O28
_chemical_formula_sum   'Y11 Ta5 O28'
_cell_volume   585.61642437
_cell_formula_units_Z   1
loop_
 _symmetry_equiv_pos_site_id
 _symmetry_equiv_pos_as_xyz
  1  'x, y, z'
loop_
 _atom_site_type_symbol
 _atom_site_label
 _atom_site_symmetry_multiplicity
 _atom_site_fract_x
 _atom_site_fract_y
 _atom_site_fract_z
 _atom_site_occupancy
  Y  Y0  1  0.033330  0.503292  0.250873  1
  Y  Y1  1  0.250136  0.748853  0.376014  1
  Y  Y2  1  0.972318  0.497316  0.748804  1
  Y  Y3  1  0.250866  0.250062  0.373743  1
  Y  Y4  1  0.742905  0.747267  0.618841  1
  Y  Y5  1  0.754348  0.751557  0.130371  1
  Y  Y6  1  0.252125  0.249217  0.873434  1
  Y  Y7  1  0.528435  0.000891  0.998781  1
  Y  Y8  1  0.772466  0.229594  0.114289  1
  Y  Y9  1  0.467258  0.995273  0.497063  1
  Y  Y10  1  0.729287  0.268420  0.633841  1
  Ta  Ta11  1  0.249898  0.748971  0.874588  1
  Ta  Ta12  1  0.991564  0.003745  0.735971  1
  Ta  Ta13  1  0.509187  0.494116  0.480747  1
  Ta  Ta14  1  0.509431  0.494777  0.011806  1
  Ta  Ta15  1  0.991656  0.004189  0.266801  1
  O  O16  1  0.129939  0.940978  0.469690  1
  O  O17  1  0.895009  0.032744  0.015924  1
  O  O18  1  0.110192  0.841392  0.722213  1
  O  O19  1  0.101452  0.838570  0.118919  1
  O  O20  1  0.044678  0.318342  0.659684  1
  O  O21  1  0.053899  0.318319  0.158336  1
  O  O22  1  0.520116  0.817924  0.910344  1
  O  O23  1  0.548837  0.803930  0.400537  1
  O  O24  1  0.218444  0.460434  0.955737  1
  O  O25  1  0.719150  0.946144  0.694988  1
  O  O26  1  0.394123  0.658288  0.027537  1
  O  O27  1  0.398422  0.660082  0.628191  1
  O  O28  1  0.717873  0.947491  0.250754  1
  O  O29  1  0.218575  0.459612  0.503098  1
  O  O30  1  0.606854  0.465273  0.731851  1
  O  O31  1  0.371008  0.556823  0.277967  1
  O  O32  1  0.782283  0.551524  0.053235  1
  O  O33  1  0.282155  0.040262  0.791997  1
  O  O34  1  0.281879  0.037893  0.243986  1
  O  O35  1  0.588439  0.335739  0.946758  1
  O  O36  1  0.782663  0.550259  0.496214  1
  O  O37  1  0.588732  0.335529  0.387521  1
  O  O38  1  0.950295  0.695257  0.349304  1
  O  O39  1  0.457616  0.179936  0.089358  1
  O  O40  1  0.446847  0.180397  0.588552  1
  O  O41  1  0.981966  0.680262  0.836769  1
  O  O42  1  0.911362  0.162688  0.360287  1
  O  O43  1  0.909501  0.162170  0.800834  1
