# generated using pymatgen
data_Y11Tm5O24
_symmetry_space_group_name_H-M   'P 1'
_cell_length_a   9.19847086
_cell_length_b   9.19807398
_cell_length_c   9.20802828
_cell_angle_alpha   109.50298372
_cell_angle_beta   109.47718340
_cell_angle_gamma   109.45670978
_symmetry_Int_Tables_number   1
_chemical_formula_structural   Y11Tm5O24
_chemical_formula_sum   'Y11 Tm5 O24'
_cell_volume   599.56013119
_cell_formula_units_Z   1
loop_
 _symmetry_equiv_pos_site_id
 _symmetry_equiv_pos_as_xyz
  1  'x, y, z'
loop_
 _atom_site_type_symbol
 _atom_site_label
 _atom_site_symmetry_multiplicity
 _atom_site_fract_x
 _atom_site_fract_y
 _atom_site_fract_z
 _atom_site_occupancy
  Y  Y0  1  0.967956  0.250260  0.217696  1
  Y  Y1  1  0.498091  0.999895  0.000508  1
  Y  Y2  1  0.784569  0.032324  0.750473  1
  Y  Y3  1  0.750982  0.284017  0.532677  1
  Y  Y4  1  0.750301  0.781303  0.032116  1
  Y  Y5  1  0.001619  0.501270  0.000024  1
  Y  Y6  1  0.531228  0.747752  0.280766  1
  Y  Y7  1  0.499184  0.498501  0.498676  1
  Y  Y8  1  0.466632  0.250485  0.717979  1
  Y  Y9  1  0.001076  0.999374  0.500794  1
  Y  Y10  1  0.248216  0.717477  0.467971  1
  Tm  Tm11  1  0.716079  0.466315  0.250242  1
  Tm  Tm12  1  0.250614  0.216319  0.967259  1
  Tm  Tm13  1  0.282340  0.532906  0.750438  1
  Tm  Tm14  1  0.216846  0.967404  0.248750  1
  Tm  Tm15  1  0.034183  0.750638  0.783688  1
  O  O16  1  0.761091  0.030949  0.487903  1
  O  O17  1  0.738417  0.230297  0.270415  1
  O  O18  1  0.965042  0.510457  0.238271  1
  O  O19  1  0.268562  0.011155  0.042684  1
  O  O20  1  0.465957  0.225982  0.453939  1
  O  O21  1  0.771380  0.725475  0.260300  1
  O  O22  1  0.456909  0.464588  0.226757  1
  O  O23  1  0.047162  0.272855  0.012237  1
  O  O24  1  0.013862  0.041643  0.271420  1
  O  O25  1  0.729957  0.261264  0.772465  1
  O  O26  1  0.774192  0.546108  0.531781  1
  O  O27  1  0.485819  0.756996  0.028110  1
  O  O28  1  0.228514  0.457767  0.472372  1
  O  O29  1  0.270837  0.743342  0.229122  1
  O  O30  1  0.510243  0.241352  0.971077  1
  O  O31  1  0.993218  0.957372  0.730907  1
  O  O32  1  0.540128  0.531163  0.769668  1
  O  O33  1  0.959822  0.730351  0.987335  1
  O  O34  1  0.530844  0.770046  0.541808  1
  O  O35  1  0.228273  0.274286  0.743652  1
  O  O36  1  0.034695  0.492115  0.761060  1
  O  O37  1  0.727870  0.988988  0.957535  1
  O  O38  1  0.239396  0.969104  0.509258  1
  O  O39  1  0.257892  0.770109  0.729869  1
