# generated using pymatgen
data_DyY3O6
_symmetry_space_group_name_H-M   'P 1'
_cell_length_a   9.26616665
_cell_length_b   9.26612656
_cell_length_c   9.26616674
_cell_angle_alpha   109.48218839
_cell_angle_beta   109.46552691
_cell_angle_gamma   109.46612582
_symmetry_Int_Tables_number   1
_chemical_formula_structural   DyY3O6
_chemical_formula_sum   'Dy4 Y12 O24'
_cell_volume   612.45697471
_cell_formula_units_Z   4
loop_
 _symmetry_equiv_pos_site_id
 _symmetry_equiv_pos_as_xyz
  1  'x, y, z'
loop_
 _atom_site_type_symbol
 _atom_site_label
 _atom_site_symmetry_multiplicity
 _atom_site_fract_x
 _atom_site_fract_y
 _atom_site_fract_z
 _atom_site_occupancy
  Dy  Dy0  1  0.532672  0.750000  0.282672  1
  Dy  Dy1  1  0.217198  0.967041  0.249880  1
  Dy  Dy2  1  0.282839  0.532959  0.750157  1
  Dy  Dy3  1  0.032994  0.750000  0.782993  1
  Y  Y4  1  0.967421  0.250000  0.217421  1
  Y  Y5  1  0.499764  0.999825  0.000112  1
  Y  Y6  1  0.782722  0.032568  0.749895  1
  Y  Y7  1  0.717328  0.467432  0.250155  1
  Y  Y8  1  0.750045  0.282762  0.532782  1
  Y  Y9  1  0.750013  0.782636  0.032688  1
  Y  Y10  1  0.000287  0.500175  0.999939  1
  Y  Y11  1  0.500093  0.500015  0.500078  1
  Y  Y12  1  0.467107  0.250000  0.717107  1
  Y  Y13  1  0.000062  0.999985  0.500079  1
  Y  Y14  1  0.250052  0.717364  0.467377  1
  Y  Y15  1  0.250020  0.217238  0.967283  1
  O  O16  1  0.760168  0.030787  0.488412  1
  O  O17  1  0.739216  0.228077  0.270783  1
  O  O18  1  0.271475  0.010802  0.042641  1
  O  O19  1  0.968543  0.511126  0.239205  1
  O  O20  1  0.468093  0.228862  0.456912  1
  O  O21  1  0.771448  0.729302  0.260695  1
  O  O22  1  0.042706  0.271923  0.011139  1
  O  O23  1  0.457624  0.469213  0.229382  1
  O  O24  1  0.771143  0.542975  0.532019  1
  O  O25  1  0.729337  0.260891  0.771889  1
  O  O26  1  0.011580  0.042307  0.271694  1
  O  O27  1  0.488451  0.760103  0.031191  1
  O  O28  1  0.271088  0.739897  0.228349  1
  O  O29  1  0.229388  0.457693  0.469273  1
  O  O30  1  0.989044  0.957025  0.728167  1
  O  O31  1  0.510998  0.239108  0.968446  1
  O  O32  1  0.542304  0.531531  0.770722  1
  O  O33  1  0.958015  0.728566  0.988779  1
  O  O34  1  0.531394  0.770698  0.542147  1
  O  O35  1  0.228050  0.271138  0.739230  1
  O  O36  1  0.031839  0.489198  0.760674  1
  O  O37  1  0.728078  0.988874  0.957417  1
  O  O38  1  0.239190  0.968469  0.510772  1
  O  O39  1  0.260212  0.771434  0.729447  1
