# generated using pymatgen
data_Y3ReO8
_symmetry_space_group_name_H-M   'P 1'
_cell_length_a   6.05847621
_cell_length_b   7.29283590
_cell_length_c   13.69169313
_cell_angle_alpha   98.21109813
_cell_angle_beta   90.00000000
_cell_angle_gamma   90.00000000
_symmetry_Int_Tables_number   1
_chemical_formula_structural   Y3ReO8
_chemical_formula_sum   'Y12 Re4 O32'
_cell_volume   598.74499325
_cell_formula_units_Z   4
loop_
 _symmetry_equiv_pos_site_id
 _symmetry_equiv_pos_as_xyz
  1  'x, y, z'
loop_
 _atom_site_type_symbol
 _atom_site_label
 _atom_site_symmetry_multiplicity
 _atom_site_fract_x
 _atom_site_fract_y
 _atom_site_fract_z
 _atom_site_occupancy
  O  O0  1  0.804122  0.544018  0.519141  1
  O  O1  1  0.304122  0.955982  0.980859  1
  O  O2  1  0.195878  0.455982  0.480859  1
  O  O3  1  0.695878  0.044018  0.019141  1
  O  O4  1  0.044773  0.848297  0.596901  1
  O  O5  1  0.544773  0.651703  0.903099  1
  O  O6  1  0.955227  0.151703  0.403099  1
  O  O7  1  0.455227  0.348297  0.096901  1
  O  O8  1  0.644312  0.002401  0.670130  1
  O  O9  1  0.144312  0.497599  0.829870  1
  O  O10  1  0.355688  0.997599  0.329870  1
  O  O11  1  0.855688  0.502401  0.170130  1
  O  O12  1  0.445673  0.707395  0.587791  1
  O  O13  1  0.945673  0.792605  0.912209  1
  O  O14  1  0.554327  0.292605  0.412209  1
  O  O15  1  0.054327  0.207395  0.087791  1
  O  O16  1  0.530001  0.640127  0.326992  1
  O  O17  1  0.030001  0.859873  0.173008  1
  O  O18  1  0.469999  0.359873  0.673008  1
  O  O19  1  0.969999  0.140127  0.826992  1
  O  O20  1  0.530170  0.806184  0.157732  1
  O  O21  1  0.030170  0.693816  0.342268  1
  O  O22  1  0.469830  0.193816  0.842268  1
  O  O23  1  0.969830  0.306184  0.657732  1
  O  O24  1  0.804852  0.396012  0.980093  1
  O  O25  1  0.304852  0.103988  0.519907  1
  O  O26  1  0.195148  0.603988  0.019907  1
  O  O27  1  0.695148  0.896012  0.480093  1
  O  O28  1  0.706454  0.180372  0.213729  1
  O  O29  1  0.206454  0.319628  0.286271  1
  O  O30  1  0.293546  0.819628  0.786271  1
  O  O31  1  0.793546  0.680372  0.713729  1
  Y  Y32  1  0.698467  0.215493  0.555105  1
  Y  Y33  1  0.198467  0.284507  0.944895  1
  Y  Y34  1  0.301533  0.784507  0.444895  1
  Y  Y35  1  0.801533  0.715493  0.055105  1
  Y  Y36  1  0.740470  0.391983  0.797950  1
  Y  Y37  1  0.240470  0.108017  0.702050  1
  Y  Y38  1  0.259530  0.608017  0.202050  1
  Y  Y39  1  0.759530  0.891983  0.297950  1
  Y  Y40  1  0.189231  0.559539  0.667363  1
  Y  Y41  1  0.689231  0.940461  0.832637  1
  Y  Y42  1  0.810769  0.440461  0.332637  1
  Y  Y43  1  0.310769  0.059539  0.167363  1
  Re  Re44  1  0.745296  0.768907  0.590163  1
  Re  Re45  1  0.245296  0.731093  0.909837  1
  Re  Re46  1  0.254704  0.231093  0.409837  1
  Re  Re47  1  0.754704  0.268907  0.090163  1
