# generated using pymatgen
data_Y13Ho19O48
_symmetry_space_group_name_H-M   'P 1'
_cell_length_a   9.22633064
_cell_length_b   9.22645849
_cell_length_c   15.06623241
_cell_angle_alpha   89.99272531
_cell_angle_beta   90.00274746
_cell_angle_gamma   109.48329085
_symmetry_Int_Tables_number   1
_chemical_formula_structural   Y13Ho19O48
_chemical_formula_sum   'Y13 Ho19 O48'
_cell_volume   1209.09405721
_cell_formula_units_Z   1
loop_
 _symmetry_equiv_pos_site_id
 _symmetry_equiv_pos_as_xyz
  1  'x, y, z'
loop_
 _atom_site_type_symbol
 _atom_site_label
 _atom_site_symmetry_multiplicity
 _atom_site_fract_x
 _atom_site_fract_y
 _atom_site_fract_z
 _atom_site_occupancy
  Y  Y0  1  0.858892  0.141091  0.108907  1
  Y  Y1  1  0.499258  0.999308  0.999923  1
  Y  Y2  1  0.592059  0.342447  0.124997  1
  Y  Y3  1  0.249820  0.249776  0.250165  1
  Y  Y4  1  0.750301  0.750053  0.250020  1
  Y  Y5  1  0.500510  0.000430  0.500086  1
  Y  Y6  1  0.000647  0.500738  0.999921  1
  Y  Y7  1  0.907726  0.157710  0.874781  1
  Y  Y8  1  0.407626  0.657651  0.375005  1
  Y  Y9  1  0.250447  0.250476  0.749920  1
  Y  Y10  1  0.749511  0.749612  0.749961  1
  Y  Y11  1  0.999617  0.499504  0.500049  1
  Y  Y12  1  0.092411  0.842409  0.625001  1
  Ho  Ho13  1  0.907674  0.157573  0.375226  1
  Ho  Ho14  1  0.733520  0.765984  0.016274  1
  Ho  Ho15  1  0.483226  0.016392  0.266590  1
  Ho  Ho16  1  0.641602  0.358418  0.391591  1
  Ho  Ho17  1  0.891111  0.108821  0.641143  1
  Ho  Ho18  1  0.391150  0.608898  0.141149  1
  Ho  Ho19  1  0.766486  0.733494  0.483543  1
  Ho  Ho20  1  0.016527  0.483908  0.233798  1
  Ho  Ho21  1  0.092579  0.842162  0.125032  1
  Ho  Ho22  1  0.592391  0.342411  0.625026  1
  Ho  Ho23  1  0.233694  0.266380  0.516390  1
  Ho  Ho24  1  0.983486  0.516512  0.766474  1
  Ho  Ho25  1  0.608499  0.391505  0.858448  1
  Ho  Ho26  1  0.108425  0.891519  0.358515  1
  Ho  Ho27  1  0.358849  0.641172  0.608866  1
  Ho  Ho28  1  0.516376  0.983633  0.733650  1
  Ho  Ho29  1  0.266756  0.233603  0.983383  1
  Ho  Ho30  1  0.407640  0.657561  0.874990  1
  Ho  Ho31  1  0.141527  0.858470  0.891491  1
  O  O32  1  0.994208  0.223176  0.235243  1
  O  O33  1  0.602989  0.091983  0.135990  1
  O  O34  1  0.849707  0.392370  0.120385  1
  O  O35  1  0.651651  0.108720  0.379682  1
  O  O36  1  0.640987  0.599742  0.129702  1
  O  O37  1  0.895282  0.406673  0.364123  1
  O  O38  1  0.038479  0.266512  0.005454  1
  O  O39  1  0.342271  0.354782  0.113994  1
  O  O40  1  0.985130  0.713104  0.255787  1
  O  O41  1  0.505257  0.276638  0.266550  1
  O  O42  1  0.972679  0.243547  0.515507  1
  O  O43  1  0.876454  0.906112  0.135511  1
  O  O44  1  0.472555  0.743418  0.015432  1
  O  O45  1  0.657399  0.126570  0.614553  1
  O  O46  1  0.157461  0.626528  0.114559  1
  O  O47  1  0.625507  0.592483  0.364364  1
  O  O48  1  0.156740  0.145157  0.386058  1
  O  O49  1  0.463084  0.234917  0.494399  1
  O  O50  1  0.515494  0.787469  0.243808  1
  O  O51  1  0.759179  0.999732  0.770612  1
  O  O52  1  0.259360  0.499937  0.270724  1
  O  O53  1  0.749597  0.490137  0.521458  1
  O  O54  1  0.249460  0.990103  0.021387  1
  O  O55  1  0.858641  0.901516  0.370329  1
  O  O56  1  0.749263  0.008624  0.978676  1
  O  O57  1  0.249733  0.509262  0.479265  1
  O  O58  1  0.740208  0.499531  0.728562  1
  O  O59  1  0.141293  0.099837  0.629710  1
  O  O60  1  0.240065  0.999566  0.228606  1
  O  O61  1  0.842395  0.854861  0.613966  1
  O  O62  1  0.537507  0.765465  0.506191  1
  O  O63  1  0.484994  0.213135  0.755650  1
  O  O64  1  0.842593  0.375558  0.885675  1
  O  O65  1  0.342558  0.875501  0.385729  1
  O  O66  1  0.376536  0.407503  0.635495  1
  O  O67  1  0.493524  0.722592  0.734600  1
  O  O68  1  0.026557  0.755219  0.483588  1
  O  O69  1  0.125621  0.092532  0.864231  1
  O  O70  1  0.526692  0.255273  0.983520  1
  O  O71  1  0.656615  0.645138  0.885902  1
  O  O72  1  0.104773  0.592350  0.636050  1
  O  O73  1  0.015382  0.287405  0.743762  1
  O  O74  1  0.963137  0.734976  0.994273  1
  O  O75  1  0.349804  0.891240  0.620306  1
  O  O76  1  0.358778  0.401582  0.870274  1
  O  O77  1  0.151682  0.608809  0.879602  1
  O  O78  1  0.395233  0.906574  0.863990  1
  O  O79  1  0.005143  0.776522  0.766450  1
