# generated using pymatgen
data_Y13Ho3O24
_symmetry_space_group_name_H-M   'P 1'
_cell_length_a   9.25748203
_cell_length_b   9.26007841
_cell_length_c   9.25835042
_cell_angle_alpha   109.47690425
_cell_angle_beta   109.45713328
_cell_angle_gamma   109.46433281
_symmetry_Int_Tables_number   1
_chemical_formula_structural   Y13Ho3O24
_chemical_formula_sum   'Y13 Ho3 O24'
_cell_volume   611.08438766
_cell_formula_units_Z   1
loop_
 _symmetry_equiv_pos_site_id
 _symmetry_equiv_pos_as_xyz
  1  'x, y, z'
loop_
 _atom_site_type_symbol
 _atom_site_label
 _atom_site_symmetry_multiplicity
 _atom_site_fract_x
 _atom_site_fract_y
 _atom_site_fract_z
 _atom_site_occupancy
  Y  Y0  1  0.968230  0.250181  0.218438  1
  Y  Y1  1  0.499741  0.999519  0.999691  1
  Y  Y2  1  0.782598  0.032067  0.749669  1
  Y  Y3  1  0.717555  0.467901  0.250544  1
  Y  Y4  1  0.749601  0.782077  0.032205  1
  Y  Y5  1  0.750385  0.282704  0.532651  1
  Y  Y6  1  0.000456  0.500042  0.999882  1
  Y  Y7  1  0.466893  0.250363  0.717003  1
  Y  Y8  1  0.532778  0.749780  0.282595  1
  Y  Y9  1  0.250132  0.717524  0.467916  1
  Y  Y10  1  0.250067  0.217873  0.967252  1
  Y  Y11  1  0.217420  0.967954  0.250334  1
  Y  Y12  1  0.032303  0.749888  0.781919  1
  Ho  Ho13  1  0.499833  0.500080  0.500362  1
  Ho  Ho14  1  0.000155  0.000586  0.500117  1
  Ho  Ho15  1  0.282585  0.532220  0.749427  1
  O  O16  1  0.761564  0.031208  0.488492  1
  O  O17  1  0.739554  0.228202  0.270770  1
  O  O18  1  0.271495  0.011413  0.042286  1
  O  O19  1  0.969156  0.511385  0.239906  1
  O  O20  1  0.468581  0.230463  0.457304  1
  O  O21  1  0.773144  0.730499  0.261881  1
  O  O22  1  0.457319  0.468718  0.230552  1
  O  O23  1  0.042602  0.271637  0.011487  1
  O  O24  1  0.769426  0.542631  0.531664  1
  O  O25  1  0.011128  0.042551  0.273109  1
  O  O26  1  0.729104  0.260252  0.771475  1
  O  O27  1  0.487028  0.758010  0.029194  1
  O  O28  1  0.271170  0.740155  0.228676  1
  O  O29  1  0.511325  0.239890  0.968736  1
  O  O30  1  0.230605  0.457751  0.470301  1
  O  O31  1  0.989149  0.957629  0.726795  1
  O  O32  1  0.541452  0.531366  0.769426  1
  O  O33  1  0.957284  0.728070  0.988381  1
  O  O34  1  0.226999  0.271097  0.738210  1
  O  O35  1  0.531473  0.769571  0.542665  1
  O  O36  1  0.032313  0.488676  0.760007  1
  O  O37  1  0.728566  0.988683  0.957773  1
  O  O38  1  0.238297  0.968819  0.511655  1
  O  O39  1  0.260533  0.770567  0.729248  1
