# generated using pymatgen
data_Y13Tm3O24
_symmetry_space_group_name_H-M   'P 1'
_cell_length_a   9.24103457
_cell_length_b   9.24915311
_cell_length_c   9.23581248
_cell_angle_alpha   109.48098407
_cell_angle_beta   109.42393201
_cell_angle_gamma   109.49443391
_symmetry_Int_Tables_number   1
_chemical_formula_structural   Y13Tm3O24
_chemical_formula_sum   'Y13 Tm3 O24'
_cell_volume   607.78828566
_cell_formula_units_Z   1
loop_
 _symmetry_equiv_pos_site_id
 _symmetry_equiv_pos_as_xyz
  1  'x, y, z'
loop_
 _atom_site_type_symbol
 _atom_site_label
 _atom_site_symmetry_multiplicity
 _atom_site_fract_x
 _atom_site_fract_y
 _atom_site_fract_z
 _atom_site_occupancy
  Y  Y0  1  0.968107  0.249679  0.217688  1
  Y  Y1  1  0.499700  0.999980  0.000995  1
  Y  Y2  1  0.783900  0.032630  0.749249  1
  Y  Y3  1  0.716775  0.467523  0.251268  1
  Y  Y4  1  0.748619  0.282804  0.532772  1
  Y  Y5  1  0.750912  0.783626  0.033882  1
  Y  Y6  1  0.000424  0.500961  0.000505  1
  Y  Y7  1  0.534358  0.750468  0.284677  1
  Y  Y8  1  0.464484  0.249108  0.714100  1
  Y  Y9  1  0.250369  0.717237  0.466548  1
  Y  Y10  1  0.249822  0.216029  0.966815  1
  Y  Y11  1  0.283277  0.532526  0.748777  1
  Y  Y12  1  0.032610  0.750340  0.783489  1
  Tm  Tm13  1  0.498849  0.498591  0.498926  1
  Tm  Tm14  1  0.000539  0.999898  0.499444  1
  Tm  Tm15  1  0.215464  0.966722  0.250679  1
  O  O16  1  0.739060  0.228733  0.271433  1
  O  O17  1  0.765091  0.032993  0.489763  1
  O  O18  1  0.968130  0.510161  0.239202  1
  O  O19  1  0.270778  0.010083  0.045581  1
  O  O20  1  0.463002  0.228056  0.453382  1
  O  O21  1  0.774999  0.731843  0.265158  1
  O  O22  1  0.456844  0.467321  0.231619  1
  O  O23  1  0.042774  0.271817  0.010098  1
  O  O24  1  0.767136  0.542452  0.533503  1
  O  O25  1  0.728061  0.260796  0.770961  1
  O  O26  1  0.012692  0.042445  0.274461  1
  O  O27  1  0.489587  0.760279  0.032127  1
  O  O28  1  0.509854  0.238805  0.967469  1
  O  O29  1  0.990749  0.957004  0.724808  1
  O  O30  1  0.272122  0.743464  0.229787  1
  O  O31  1  0.232301  0.457356  0.466932  1
  O  O32  1  0.543520  0.532563  0.767933  1
  O  O33  1  0.960338  0.731226  0.993360  1
  O  O34  1  0.533196  0.767987  0.543127  1
  O  O35  1  0.224977  0.268109  0.734846  1
  O  O36  1  0.031815  0.489778  0.760785  1
  O  O37  1  0.728913  0.989805  0.958008  1
  O  O38  1  0.234584  0.966721  0.506858  1
  O  O39  1  0.261267  0.772083  0.728985  1
