# generated using pymatgen
data_DyY7O12
_symmetry_space_group_name_H-M   'P 1'
_cell_length_a   9.27009055
_cell_length_b   9.27008532
_cell_length_c   9.27009329
_cell_angle_alpha   109.47310302
_cell_angle_beta   109.46065746
_cell_angle_gamma   109.47997002
_symmetry_Int_Tables_number   1
_chemical_formula_structural   DyY7O12
_chemical_formula_sum   'Dy2 Y14 O24'
_cell_volume   613.23868595
_cell_formula_units_Z   2
loop_
 _symmetry_equiv_pos_site_id
 _symmetry_equiv_pos_as_xyz
  1  'x, y, z'
loop_
 _atom_site_type_symbol
 _atom_site_label
 _atom_site_symmetry_multiplicity
 _atom_site_fract_x
 _atom_site_fract_y
 _atom_site_fract_z
 _atom_site_occupancy
  Dy  Dy0  1  0.467242  0.250000  0.717242  1
  Dy  Dy1  1  0.032756  0.750000  0.782757  1
  Y  Y2  1  0.967332  0.250000  0.217332  1
  Y  Y3  1  0.499949  0.000045  0.999971  1
  Y  Y4  1  0.782685  0.032685  0.750000  1
  Y  Y5  1  0.717316  0.467316  0.250000  1
  Y  Y6  1  0.749999  0.782591  0.032591  1
  Y  Y7  1  0.750000  0.282743  0.532742  1
  Y  Y8  1  0.500074  0.499979  0.500030  1
  Y  Y9  1  0.000051  0.000021  0.500095  1
  Y  Y10  1  0.999925  0.499955  0.999904  1
  Y  Y11  1  0.532667  0.750000  0.282667  1
  Y  Y12  1  0.250000  0.717409  0.467409  1
  Y  Y13  1  0.250000  0.217259  0.967258  1
  Y  Y14  1  0.217385  0.967385  0.250000  1
  Y  Y15  1  0.282615  0.532615  0.749999  1
  O  O16  1  0.760857  0.031620  0.488879  1
  O  O17  1  0.739144  0.228022  0.270765  1
  O  O18  1  0.271695  0.010875  0.042444  1
  O  O19  1  0.968417  0.511175  0.239197  1
  O  O20  1  0.468431  0.229251  0.457556  1
  O  O21  1  0.771979  0.729219  0.260804  1
  O  O22  1  0.457258  0.468380  0.229236  1
  O  O23  1  0.042741  0.271977  0.011121  1
  O  O24  1  0.728858  0.260802  0.771928  1
  O  O25  1  0.488877  0.760821  0.031585  1
  O  O26  1  0.011123  0.042708  0.271943  1
  O  O27  1  0.771142  0.543069  0.531944  1
  O  O28  1  0.229237  0.457293  0.468416  1
  O  O29  1  0.270763  0.739178  0.228056  1
  O  O30  1  0.988875  0.956931  0.728073  1
  O  O31  1  0.511126  0.239198  0.968057  1
  O  O32  1  0.957448  0.728128  0.988454  1
  O  O33  1  0.542553  0.531007  0.770680  1
  O  O34  1  0.531583  0.770780  0.542758  1
  O  O35  1  0.228306  0.270749  0.739179  1
  O  O36  1  0.728022  0.988825  0.957242  1
  O  O37  1  0.031569  0.489124  0.760820  1
  O  O38  1  0.239673  0.968994  0.511547  1
  O  O39  1  0.260326  0.771872  0.729320  1
