# generated using pymatgen
data_Y7HoO12
_symmetry_space_group_name_H-M   'P 1'
_cell_length_a   9.25355978
_cell_length_b   9.25355978
_cell_length_c   9.25355978
_cell_angle_alpha   109.46456977
_cell_angle_beta   109.47275898
_cell_angle_gamma   109.47633338
_symmetry_Int_Tables_number   1
_chemical_formula_structural   Y7HoO12
_chemical_formula_sum   'Y14 Ho2 O24'
_cell_volume   609.96456951
_cell_formula_units_Z   2
loop_
 _symmetry_equiv_pos_site_id
 _symmetry_equiv_pos_as_xyz
  1  'x, y, z'
loop_
 _atom_site_type_symbol
 _atom_site_label
 _atom_site_symmetry_multiplicity
 _atom_site_fract_x
 _atom_site_fract_y
 _atom_site_fract_z
 _atom_site_occupancy
  Y  Y0  1  0.967341  0.250000  0.217341  1
  Y  Y1  1  0.499337  0.999793  0.999197  1
  Y  Y2  1  0.782810  0.032810  0.750000  1
  Y  Y3  1  0.717190  0.467190  0.250000  1
  Y  Y4  1  0.750000  0.283276  0.533276  1
  Y  Y5  1  0.750000  0.782103  0.032103  1
  Y  Y6  1  0.999404  0.500207  0.999544  1
  Y  Y7  1  0.500596  0.500141  0.500803  1
  Y  Y8  1  0.000663  -0.000141  0.500456  1
  Y  Y9  1  0.532659  0.750000  0.282659  1
  Y  Y10  1  0.250000  0.717897  0.467897  1
  Y  Y11  1  0.250000  0.216724  0.966724  1
  Y  Y12  1  0.282170  0.532170  0.750000  1
  Y  Y13  1  0.217830  0.967830  0.250000  1
  Ho  Ho14  1  0.467067  0.250000  0.717067  1
  Ho  Ho15  1  0.032933  0.750000  0.782933  1
  O  O16  1  0.761203  0.031659  0.489316  1
  O  O17  1  0.738797  0.228113  0.270456  1
  O  O18  1  0.271294  0.010210  0.041560  1
  O  O19  1  0.968610  0.511271  0.239377  1
  O  O20  1  0.771896  0.729233  0.260623  1
  O  O21  1  0.468650  0.229733  0.458440  1
  O  O22  1  0.457657  0.468341  0.229544  1
  O  O23  1  0.042343  0.271887  0.010684  1
  O  O24  1  0.488977  0.760658  0.031334  1
  O  O25  1  0.727939  0.260666  0.771769  1
  O  O26  1  0.011023  0.042357  0.271681  1
  O  O27  1  0.772061  0.543829  0.532727  1
  O  O28  1  0.229323  0.457643  0.468666  1
  O  O29  1  0.270677  0.739342  0.228319  1
  O  O30  1  0.988897  0.956171  0.728231  1
  O  O31  1  0.511103  0.239334  0.967273  1
  O  O32  1  0.957818  0.728804  0.987543  1
  O  O33  1  0.542182  0.529724  0.770987  1
  O  O34  1  0.531390  0.770767  0.542663  1
  O  O35  1  0.228706  0.270267  0.738916  1
  O  O36  1  0.031350  0.489790  0.761084  1
  O  O37  1  0.728104  0.988729  0.957337  1
  O  O38  1  0.258738  0.771196  0.729013  1
  O  O39  1  0.241262  0.970276  0.512457  1
