# generated using pymatgen
data_Y7ReO14
_symmetry_space_group_name_H-M   'P 1'
_cell_length_a   7.57337862
_cell_length_b   15.15030056
_cell_length_c   13.08853843
_cell_angle_alpha   30.24155372
_cell_angle_beta   54.64598570
_cell_angle_gamma   60.00773632
_symmetry_Int_Tables_number   1
_chemical_formula_structural   Y7ReO14
_chemical_formula_sum   'Y14 Re2 O28'
_cell_volume   616.88073403
_cell_formula_units_Z   2
loop_
 _symmetry_equiv_pos_site_id
 _symmetry_equiv_pos_as_xyz
  1  'x, y, z'
loop_
 _atom_site_type_symbol
 _atom_site_label
 _atom_site_symmetry_multiplicity
 _atom_site_fract_x
 _atom_site_fract_y
 _atom_site_fract_z
 _atom_site_occupancy
  O  O0  1  0.137328  0.231821  0.130851  1
  O  O1  1  0.135242  0.510849  0.123743  1
  O  O2  1  0.137328  0.268187  0.594485  1
  O  O3  1  0.418735  0.225205  0.356061  1
  O  O4  1  0.134341  0.726076  0.139583  1
  O  O5  1  0.595572  0.510849  0.123743  1
  O  O6  1  0.135240  0.989153  0.145434  1
  O  O7  1  0.404415  0.010847  0.854566  1
  O  O8  1  0.208572  0.563272  0.548783  1
  O  O9  1  0.432680  0.436728  0.451217  1
  O  O10  1  0.581267  0.725207  0.193525  1
  O  O11  1  0.865656  0.226083  0.408261  1
  O  O12  1  0.134344  0.773917  0.591739  1
  O  O13  1  0.418733  0.274793  0.806475  1
  O  O14  1  0.791428  0.436728  0.451217  1
  O  O15  1  0.567320  0.563272  0.548783  1
  O  O16  1  0.595585  0.989153  0.145434  1
  O  O17  1  0.864760  0.010847  0.854566  1
  O  O18  1  0.404428  0.489151  0.876257  1
  O  O19  1  0.208571  0.936733  0.675316  1
  O  O20  1  0.432669  0.063267  0.324684  1
  O  O21  1  0.865659  0.273924  0.860417  1
  O  O22  1  0.862672  0.731813  0.405515  1
  O  O23  1  0.581265  0.774795  0.643939  1
  O  O24  1  0.791429  0.063267  0.324684  1
  O  O25  1  0.567331  0.936733  0.675316  1
  O  O26  1  0.864758  0.489151  0.876257  1
  O  O27  1  0.862672  0.768179  0.869149  1
  Re  Re28  1  0.500000  0.500000  0.500000  1
  Re  Re29  1  0.500000  0.000000  0.500000  1
  Y  Y30  1  0.000000  0.000000  0.000000  1
  Y  Y31  1  0.000000  0.500000  0.000000  1
  Y  Y32  1  0.500000  0.000000  0.000000  1
  Y  Y33  1  0.497511  0.258535  0.976848  1
  Y  Y34  1  0.500000  0.500000  0.000000  1
  Y  Y35  1  0.497506  0.241464  0.493922  1
  Y  Y36  1  0.031723  0.258535  0.976848  1
  Y  Y37  1  0.502489  0.741465  0.023152  1
  Y  Y38  1  0.000000  0.000000  0.500000  1
  Y  Y39  1  0.502494  0.758536  0.506078  1
  Y  Y40  1  0.968277  0.741465  0.023152  1
  Y  Y41  1  0.031722  0.241464  0.493922  1
  Y  Y42  1  0.000000  0.500000  0.500000  1
  Y  Y43  1  0.968278  0.758536  0.506078  1
