# generated using pymatgen
data_Y7TmO12
_symmetry_space_group_name_H-M   'P 1'
_cell_length_a   9.24061822
_cell_length_b   9.24061822
_cell_length_c   9.24061822
_cell_angle_alpha   109.45235084
_cell_angle_beta   109.47309007
_cell_angle_gamma   109.48822300
_symmetry_Int_Tables_number   1
_chemical_formula_structural   Y7TmO12
_chemical_formula_sum   'Y14 Tm2 O24'
_cell_volume   607.40889746
_cell_formula_units_Z   2
loop_
 _symmetry_equiv_pos_site_id
 _symmetry_equiv_pos_as_xyz
  1  'x, y, z'
loop_
 _atom_site_type_symbol
 _atom_site_label
 _atom_site_symmetry_multiplicity
 _atom_site_fract_x
 _atom_site_fract_y
 _atom_site_fract_z
 _atom_site_occupancy
  Y  Y0  1  0.966916  0.250000  0.216916  1
  Y  Y1  1  0.498883  0.999703  0.998411  1
  Y  Y2  1  0.783009  0.033009  0.750000  1
  Y  Y3  1  0.716991  0.466991  0.250000  1
  Y  Y4  1  0.750000  0.284305  0.534305  1
  Y  Y5  1  0.750000  0.781998  0.031998  1
  Y  Y6  1  0.501292  0.500472  0.501589  1
  Y  Y7  1  0.001117  0.999528  0.500820  1
  Y  Y8  1  0.533084  0.750000  0.283084  1
  Y  Y9  1  0.998708  0.500297  0.999180  1
  Y  Y10  1  0.250000  0.718002  0.468002  1
  Y  Y11  1  0.250000  0.215695  0.965695  1
  Y  Y12  1  0.217575  0.967575  0.250000  1
  Y  Y13  1  0.282425  0.532425  0.750000  1
  Tm  Tm14  1  0.466362  0.250000  0.716362  1
  Tm  Tm15  1  0.033638  0.750000  0.783638  1
  O  O16  1  0.762231  0.032658  0.490332  1
  O  O17  1  0.737769  0.228101  0.270427  1
  O  O18  1  0.270251  0.008308  0.040355  1
  O  O19  1  0.968210  0.511128  0.238997  1
  O  O20  1  0.467952  0.229897  0.459645  1
  O  O21  1  0.772132  0.729213  0.261003  1
  O  O22  1  0.457674  0.467342  0.229573  1
  O  O23  1  0.042326  0.271899  0.009668  1
  O  O24  1  0.725678  0.260943  0.771461  1
  O  O25  1  0.774322  0.545782  0.535265  1
  O  O26  1  0.010604  0.042199  0.271679  1
  O  O27  1  0.489396  0.761075  0.031596  1
  O  O28  1  0.229479  0.457801  0.468404  1
  O  O29  1  0.510518  0.239057  0.964735  1
  O  O30  1  0.989482  0.954218  0.728539  1
  O  O31  1  0.270521  0.738925  0.228321  1
  O  O32  1  0.957945  0.729185  0.986173  1
  O  O33  1  0.542055  0.528228  0.771240  1
  O  O34  1  0.531790  0.770787  0.542919  1
  O  O35  1  0.229749  0.270103  0.738057  1
  O  O36  1  0.727868  0.988872  0.957081  1
  O  O37  1  0.032048  0.491692  0.761943  1
  O  O38  1  0.243012  0.971772  0.513827  1
  O  O39  1  0.256988  0.770815  0.728760  1
