# generated using pymatgen
data_Y15TmO24
_symmetry_space_group_name_H-M   'P 1'
_cell_length_a   9.26196171
_cell_length_b   9.25781350
_cell_length_c   9.26196171
_cell_angle_alpha   109.46506756
_cell_angle_beta   109.48011464
_cell_angle_gamma   109.48663031
_symmetry_Int_Tables_number   1
_chemical_formula_structural   Y15TmO24
_chemical_formula_sum   'Y15 Tm1 O24'
_cell_volume   611.21663539
_cell_formula_units_Z   1
loop_
 _symmetry_equiv_pos_site_id
 _symmetry_equiv_pos_as_xyz
  1  'x, y, z'
loop_
 _atom_site_type_symbol
 _atom_site_label
 _atom_site_symmetry_multiplicity
 _atom_site_fract_x
 _atom_site_fract_y
 _atom_site_fract_z
 _atom_site_occupancy
  Y  Y0  1  0.499190  0.999580  0.999650  1
  Y  Y1  1  0.966857  0.250000  0.216857  1
  Y  Y2  1  0.783450  0.032627  0.750076  1
  Y  Y3  1  0.717449  0.467373  0.250823  1
  Y  Y4  1  0.750283  0.782985  0.032687  1
  Y  Y5  1  0.750623  0.284035  0.533662  1
  Y  Y6  1  0.000070  0.500420  0.999610  1
  Y  Y7  1  0.533029  0.750000  0.283029  1
  Y  Y8  1  0.500809  0.500551  0.500589  1
  Y  Y9  1  0.466951  0.250000  0.716951  1
  Y  Y10  1  0.000038  0.999449  0.500258  1
  Y  Y11  1  0.249702  0.717015  0.467298  1
  Y  Y12  1  0.249628  0.215965  0.966588  1
  Y  Y13  1  0.216694  0.966674  0.249239  1
  Y  Y14  1  0.282565  0.533326  0.750020  1
  Tm  Tm15  1  0.033684  0.750000  0.783684  1
  O  O16  1  0.761532  0.032107  0.489499  1
  O  O17  1  0.738665  0.228024  0.270889  1
  O  O18  1  0.269650  0.007965  0.040186  1
  O  O19  1  0.967992  0.510896  0.238671  1
  O  O20  1  0.771981  0.729109  0.260922  1
  O  O21  1  0.468158  0.229283  0.456891  1
  O  O22  1  0.457391  0.467893  0.229424  1
  O  O23  1  0.042865  0.271976  0.010641  1
  O  O24  1  0.729220  0.261046  0.771944  1
  O  O25  1  0.010841  0.042672  0.272033  1
  O  O26  1  0.774305  0.545812  0.535318  1
  O  O27  1  0.489302  0.761155  0.031943  1
  O  O28  1  0.229360  0.457328  0.468168  1
  O  O29  1  0.270789  0.738845  0.228148  1
  O  O30  1  0.989507  0.954188  0.728493  1
  O  O31  1  0.510898  0.238954  0.968172  1
  O  O32  1  0.542660  0.531899  0.770802  1
  O  O33  1  0.957720  0.728525  0.986349  1
  O  O34  1  0.531814  0.770891  0.542872  1
  O  O35  1  0.227608  0.270717  0.738874  1
  O  O36  1  0.727773  0.989104  0.957096  1
  O  O37  1  0.032221  0.492035  0.761686  1
  O  O38  1  0.238903  0.968101  0.510761  1
  O  O39  1  0.257823  0.771475  0.729194  1
