# generated using pymatgen
data_Y4Mo4O11
_symmetry_space_group_name_H-M   'P 1'
_cell_length_a   5.75242746
_cell_length_b   10.89429223
_cell_length_c   16.17596310
_cell_angle_alpha   90.00000000
_cell_angle_beta   90.00000000
_cell_angle_gamma   90.00000000
_symmetry_Int_Tables_number   1
_chemical_formula_structural   Y4Mo4O11
_chemical_formula_sum   'Y16 Mo16 O44'
_cell_volume   1013.72537816
_cell_formula_units_Z   4
loop_
 _symmetry_equiv_pos_site_id
 _symmetry_equiv_pos_as_xyz
  1  'x, y, z'
loop_
 _atom_site_type_symbol
 _atom_site_label
 _atom_site_symmetry_multiplicity
 _atom_site_fract_x
 _atom_site_fract_y
 _atom_site_fract_z
 _atom_site_occupancy
  Y  Y0  1  0.500000  0.316223  0.276909  1
  Y  Y1  1  0.500000  0.683777  0.723091  1
  Y  Y2  1  0.500000  0.816223  0.223091  1
  Y  Y3  1  0.500000  0.183777  0.776909  1
  Y  Y4  1  0.500000  0.076736  0.098554  1
  Y  Y5  1  0.500000  0.923264  0.901446  1
  Y  Y6  1  0.500000  0.576736  0.401446  1
  Y  Y7  1  0.500000  0.423264  0.598554  1
  Y  Y8  1  0.000000  0.094886  0.236548  1
  Y  Y9  1  0.000000  0.905114  0.763452  1
  Y  Y10  1  0.000000  0.594886  0.263452  1
  Y  Y11  1  0.000000  0.405114  0.736548  1
  Y  Y12  1  0.000000  0.884498  0.076277  1
  Y  Y13  1  0.000000  0.115502  0.923723  1
  Y  Y14  1  0.000000  0.384498  0.423723  1
  Y  Y15  1  0.000000  0.615502  0.576277  1
  Mo  Mo16  1  0.273111  0.360899  0.087657  1
  Mo  Mo17  1  0.273111  0.639101  0.912343  1
  Mo  Mo18  1  0.726889  0.860899  0.412343  1
  Mo  Mo19  1  0.726889  0.139101  0.587657  1
  Mo  Mo20  1  0.726889  0.639101  0.912343  1
  Mo  Mo21  1  0.726889  0.360899  0.087657  1
  Mo  Mo22  1  0.273111  0.139101  0.587657  1
  Mo  Mo23  1  0.273111  0.860899  0.412343  1
  Mo  Mo24  1  0.500000  0.597458  0.071703  1
  Mo  Mo25  1  0.500000  0.402542  0.928297  1
  Mo  Mo26  1  0.500000  0.097458  0.428297  1
  Mo  Mo27  1  0.500000  0.902542  0.571703  1
  Mo  Mo28  1  0.000000  0.588869  0.064233  1
  Mo  Mo29  1  0.000000  0.411131  0.935767  1
  Mo  Mo30  1  0.000000  0.088869  0.435767  1
  Mo  Mo31  1  0.000000  0.911131  0.564233  1
  O  O32  1  0.246436  0.000000  0.000000  1
  O  O33  1  0.753564  0.500000  0.500000  1
  O  O34  1  0.753564  0.000000  0.000000  1
  O  O35  1  0.246436  0.500000  0.500000  1
  O  O36  1  0.000000  0.233416  0.524187  1
  O  O37  1  0.000000  0.766584  0.475813  1
  O  O38  1  0.000000  0.733416  0.975813  1
  O  O39  1  0.000000  0.266584  0.024187  1
  O  O40  1  0.000000  0.049709  0.655010  1
  O  O41  1  0.000000  0.950291  0.344990  1
  O  O42  1  0.000000  0.549709  0.844990  1
  O  O43  1  0.000000  0.450291  0.155010  1
  O  O44  1  0.500000  0.245304  0.512473  1
  O  O45  1  0.500000  0.754696  0.487527  1
  O  O46  1  0.500000  0.745304  0.987527  1
  O  O47  1  0.500000  0.254696  0.012473  1
  O  O48  1  0.500000  0.038787  0.664905  1
  O  O49  1  0.500000  0.961213  0.335095  1
  O  O50  1  0.759174  0.309140  0.859723  1
  O  O51  1  0.500000  0.538787  0.835095  1
  O  O52  1  0.247940  0.960029  0.171875  1
  O  O53  1  0.247940  0.039971  0.828125  1
  O  O54  1  0.752060  0.460029  0.328125  1
  O  O55  1  0.752060  0.539971  0.671875  1
  O  O56  1  0.752060  0.039971  0.828125  1
  O  O57  1  0.752060  0.960029  0.171875  1
  O  O58  1  0.247940  0.539971  0.671875  1
  O  O59  1  0.247940  0.460029  0.328125  1
  O  O60  1  0.240826  0.690860  0.140277  1
  O  O61  1  0.240826  0.309140  0.859723  1
  O  O62  1  0.759174  0.190860  0.359723  1
  O  O63  1  0.759174  0.809140  0.640277  1
  O  O64  1  0.263633  0.222800  0.175364  1
  O  O65  1  0.263633  0.777200  0.824636  1
  O  O66  1  0.736367  0.722800  0.324636  1
  O  O67  1  0.736367  0.277200  0.675364  1
  O  O68  1  0.736367  0.777200  0.824636  1
  O  O69  1  0.736367  0.222800  0.175364  1
  O  O70  1  0.263633  0.277200  0.675364  1
  O  O71  1  0.263633  0.722800  0.324636  1
  O  O72  1  0.240826  0.190860  0.359723  1
  O  O73  1  0.240826  0.809140  0.640277  1
  O  O74  1  0.759174  0.690860  0.140277  1
  O  O75  1  0.500000  0.461213  0.164905  1
