# generated using pymatgen
data_Y16Ti16O35
_symmetry_space_group_name_H-M   'P 1'
_cell_length_a   7.08385648
_cell_length_b   7.04152545
_cell_length_c   28.19557613
_cell_angle_alpha   59.43291250
_cell_angle_beta   60.46325526
_cell_angle_gamma   59.95236384
_symmetry_Int_Tables_number   1
_chemical_formula_structural   Y16Ti16O35
_chemical_formula_sum   'Y16 Ti16 O35'
_cell_volume   993.19507797
_cell_formula_units_Z   1
loop_
 _symmetry_equiv_pos_site_id
 _symmetry_equiv_pos_as_xyz
  1  'x, y, z'
loop_
 _atom_site_type_symbol
 _atom_site_label
 _atom_site_symmetry_multiplicity
 _atom_site_fract_x
 _atom_site_fract_y
 _atom_site_fract_z
 _atom_site_occupancy
  Y  Y0  1  0.998972  0.004246  0.001876  1
  Y  Y1  1  0.994599  0.004715  0.124983  1
  Y  Y2  1  0.007568  0.009999  0.248673  1
  Y  Y3  1  0.999082  0.488142  0.250807  1
  Y  Y4  1  0.998944  0.996130  0.372112  1
  Y  Y5  1  0.490229  0.006916  0.246568  1
  Y  Y6  1  0.009327  0.991277  0.499072  1
  Y  Y7  1  0.989887  0.993843  0.622255  1
  Y  Y8  1  0.005854  0.480025  0.498263  1
  Y  Y9  1  0.487402  0.983841  0.501871  1
  Y  Y10  1  0.993119  0.005736  0.752223  1
  Y  Y11  1  0.986806  0.493792  0.748197  1
  Y  Y12  1  0.986342  0.002287  0.872414  1
  Y  Y13  1  0.490775  0.005421  0.750181  1
  Y  Y14  1  0.989447  0.499820  0.000943  1
  Y  Y15  1  0.493060  0.024267  0.995643  1
  Ti  Ti16  1  0.007897  0.495734  0.124988  1
  Ti  Ti17  1  0.485616  0.496263  0.123846  1
  Ti  Ti18  1  0.024308  0.495680  0.370540  1
  Ti  Ti19  1  0.488743  0.500218  0.255293  1
  Ti  Ti20  1  0.482140  0.039139  0.121130  1
  Ti  Ti21  1  0.501196  0.494861  0.361292  1
  Ti  Ti22  1  0.026417  0.502112  0.623268  1
  Ti  Ti23  1  0.499962  0.496923  0.505807  1
  Ti  Ti24  1  0.502121  0.014875  0.370876  1
  Ti  Ti25  1  0.429827  0.502574  0.625082  1
  Ti  Ti26  1  0.016772  0.505084  0.876157  1
  Ti  Ti27  1  0.499996  0.480920  0.756462  1
  Ti  Ti28  1  0.490790  0.007891  0.628763  1
  Ti  Ti29  1  0.419582  0.516099  0.873646  1
  Ti  Ti30  1  0.489512  0.503957  0.000560  1
  Ti  Ti31  1  0.492316  0.039578  0.869388  1
  O  O32  1  0.125406  0.126368  0.032324  1
  O  O33  1  0.603918  0.153456  0.147398  1
  O  O34  1  0.395705  0.411298  0.215821  1
  O  O35  1  0.422291  0.829810  0.105377  1
  O  O36  1  0.396614  0.834297  0.212145  1
  O  O37  1  0.848882  0.420080  0.101639  1
  O  O38  1  0.162084  0.583335  0.401082  1
  O  O39  1  0.831535  0.416291  0.209518  1
  O  O40  1  0.857077  0.827415  0.100314  1
  O  O41  1  0.590971  0.150456  0.402878  1
  O  O42  1  0.384662  0.361216  0.489029  1
  O  O43  1  0.430900  0.841803  0.348166  1
  O  O44  1  0.389351  0.829406  0.460060  1
  O  O45  1  0.873951  0.869923  0.222790  1
  O  O46  1  0.845288  0.425258  0.348572  1
  O  O47  1  0.834842  0.376333  0.462542  1
  O  O48  1  0.620692  0.581051  0.542630  1
  O  O49  1  0.842113  0.840959  0.346210  1
  O  O50  1  0.599973  0.167904  0.647580  1
  O  O51  1  0.378893  0.427050  0.716219  1
  O  O52  1  0.384337  0.863282  0.606077  1
  O  O53  1  0.378789  0.851278  0.710333  1
  O  O54  1  0.993166  0.351988  0.591831  1
  O  O55  1  0.832872  0.410678  0.706248  1
  O  O56  1  0.827693  0.841017  0.598943  1
  O  O57  1  0.598099  0.592106  0.791133  1
  O  O58  1  0.597504  0.181376  0.894088  1
  O  O59  1  0.385513  0.438469  0.960199  1
  O  O60  1  0.379751  0.870457  0.855628  1
  O  O61  1  0.403283  0.833652  0.963600  1
  O  O62  1  0.999400  0.363405  0.838542  1
  O  O63  1  0.880850  0.878629  0.718395  1
  O  O64  1  0.828264  0.417850  0.959594  1
  O  O65  1  0.830890  0.834761  0.851049  1
  O  O66  1  0.876834  0.882783  0.968015  1
