# generated using pymatgen
data_Y2Ti2O7
_symmetry_space_group_name_H-M   'P 1'
_cell_length_a   7.25654109
_cell_length_b   7.16149600
_cell_length_c   28.88328531
_cell_angle_alpha   60.27141142
_cell_angle_beta   60.50932738
_cell_angle_gamma   60.43234085
_symmetry_Int_Tables_number   1
_chemical_formula_structural   Y2Ti2O7
_chemical_formula_sum   'Y16 Ti16 O56'
_cell_volume   1071.06141937
_cell_formula_units_Z   8
loop_
 _symmetry_equiv_pos_site_id
 _symmetry_equiv_pos_as_xyz
  1  'x, y, z'
loop_
 _atom_site_type_symbol
 _atom_site_label
 _atom_site_symmetry_multiplicity
 _atom_site_fract_x
 _atom_site_fract_y
 _atom_site_fract_z
 _atom_site_occupancy
  Y  Y0  1  0.032541  0.994567  0.995749  1
  Y  Y1  1  0.032541  0.489899  0.995749  1
  Y  Y2  1  0.514387  0.980754  0.006026  1
  Y  Y3  1  0.044719  0.477538  0.125051  1
  Y  Y4  1  0.000000  0.500000  0.250000  1
  Y  Y5  1  0.955281  0.522462  0.374949  1
  Y  Y6  1  0.000000  0.000000  0.250000  1
  Y  Y7  1  0.967459  0.510101  0.504251  1
  Y  Y8  1  0.500000  0.000000  0.250000  1
  Y  Y9  1  0.967459  0.005433  0.504251  1
  Y  Y10  1  0.000000  0.500000  0.750000  1
  Y  Y11  1  0.485613  0.019246  0.493974  1
  Y  Y12  1  0.000000  0.000000  0.750000  1
  Y  Y13  1  0.997368  0.001700  0.874808  1
  Y  Y14  1  0.500000  0.000000  0.750000  1
  Y  Y15  1  0.002632  0.998300  0.625192  1
  Ti  Ti16  1  0.012701  0.989875  0.126887  1
  Ti  Ti17  1  0.516895  0.491230  0.124011  1
  Ti  Ti18  1  0.500000  0.500000  0.250000  1
  Ti  Ti19  1  0.516895  0.995833  0.124011  1
  Ti  Ti20  1  0.987299  0.010125  0.373113  1
  Ti  Ti21  1  0.483105  0.508770  0.375989  1
  Ti  Ti22  1  0.993259  0.501019  0.626176  1
  Ti  Ti23  1  0.486070  0.501101  0.502932  1
  Ti  Ti24  1  0.483105  0.004167  0.375989  1
  Ti  Ti25  1  0.493847  0.500833  0.625961  1
  Ti  Ti26  1  0.006741  0.498981  0.873824  1
  Ti  Ti27  1  0.500000  0.500000  0.750000  1
  Ti  Ti28  1  0.493847  0.001475  0.625961  1
  Ti  Ti29  1  0.506153  0.499167  0.874039  1
  Ti  Ti30  1  0.506153  0.998525  0.874039  1
  Ti  Ti31  1  0.513930  0.498899  0.997068  1
  O  O32  1  0.144842  0.101859  0.037860  1
  O  O33  1  0.166004  0.089020  0.142388  1
  O  O34  1  0.151436  0.605464  0.034409  1
  O  O35  1  0.554036  0.183996  0.043003  1
  O  O36  1  0.138067  0.106916  0.287025  1
  O  O37  1  0.166004  0.675422  0.142388  1
  O  O38  1  0.554036  0.589959  0.043003  1
  O  O39  1  0.391222  0.264154  0.145118  1
  O  O40  1  0.550066  0.775825  0.099570  1
  O  O41  1  0.178444  0.092023  0.389870  1
  O  O42  1  0.440644  0.407216  0.205906  1
  O  O43  1  0.155997  0.603525  0.284238  1
  O  O44  1  0.821556  0.329944  0.110130  1
  O  O45  1  0.559356  0.171483  0.294094  1
  O  O46  1  0.117598  0.126156  0.532522  1
  O  O47  1  0.440644  0.828517  0.205906  1
  O  O48  1  0.178444  0.670056  0.389870  1
  O  O49  1  0.559356  0.592784  0.294094  1
  O  O50  1  0.821556  0.907977  0.110130  1
  O  O51  1  0.449934  0.224175  0.400430  1
  O  O52  1  0.844004  0.396475  0.215762  1
  O  O53  1  0.170551  0.171162  0.645051  1
  O  O54  1  0.608778  0.735846  0.354882  1
  O  O55  1  0.445964  0.410041  0.456997  1
  O  O56  1  0.168143  0.582969  0.541480  1
  O  O57  1  0.833996  0.324578  0.357612  1
  O  O58  1  0.574854  0.167051  0.545051  1
  O  O59  1  0.861933  0.893084  0.212975  1
  O  O60  1  0.126343  0.124570  0.781129  1
  O  O61  1  0.445964  0.816004  0.456997  1
  O  O62  1  0.170551  0.578085  0.645051  1
  O  O63  1  0.579907  0.168065  0.645991  1
  O  O64  1  0.574854  0.577891  0.545051  1
  O  O65  1  0.833996  0.910980  0.357612  1
  O  O66  1  0.848564  0.394537  0.465591  1
  O  O67  1  0.171458  0.171940  0.894696  1
  O  O68  1  0.418296  0.825101  0.607875  1
  O  O69  1  0.417915  0.420928  0.708119  1
  O  O70  1  0.171327  0.577936  0.793200  1
  O  O71  1  0.828542  0.422182  0.605304  1
  O  O72  1  0.582085  0.171319  0.791881  1
  O  O73  1  0.855158  0.898141  0.462140  1
  O  O74  1  0.417915  0.828681  0.708119  1
  O  O75  1  0.171458  0.577818  0.894696  1
  O  O76  1  0.582085  0.579072  0.791881  1
  O  O77  1  0.581704  0.174899  0.892125  1
  O  O78  1  0.828673  0.422064  0.706800  1
  O  O79  1  0.828542  0.828060  0.605304  1
  O  O80  1  0.425146  0.422109  0.954949  1
  O  O81  1  0.420093  0.831935  0.854009  1
  O  O82  1  0.873657  0.875430  0.718871  1
  O  O83  1  0.829449  0.421915  0.854949  1
  O  O84  1  0.425146  0.832949  0.954949  1
  O  O85  1  0.829449  0.828838  0.854949  1
  O  O86  1  0.831857  0.417031  0.958520  1
  O  O87  1  0.882402  0.873844  0.967478  1
