# generated using pymatgen
data_CrCdO4
_symmetry_space_group_name_H-M   'P 1'
_cell_length_a   7.19934694
_cell_length_b   7.23973301
_cell_length_c   7.23973302
_cell_angle_alpha   85.91413562
_cell_angle_beta   81.49190490
_cell_angle_gamma   81.49190487
_symmetry_Int_Tables_number   1
_chemical_formula_structural   CrCdO4
_chemical_formula_sum   'Cr4 Cd4 O16'
_cell_volume   368.61466271
_cell_formula_units_Z   4
loop_
 _symmetry_equiv_pos_site_id
 _symmetry_equiv_pos_as_xyz
  1  'x, y, z'
loop_
 _atom_site_type_symbol
 _atom_site_label
 _atom_site_symmetry_multiplicity
 _atom_site_fract_x
 _atom_site_fract_y
 _atom_site_fract_z
 _atom_site_occupancy
  O  O0  1  0.521464  0.220682  0.496427  1
  O  O1  1  0.478536  0.503574  0.779319  1
  O  O2  1  0.478535  0.779318  0.503573  1
  O  O3  1  0.521465  0.496426  0.220681  1
  O  O4  1  0.828032  0.114575  0.795868  1
  O  O5  1  0.171968  0.204132  0.885425  1
  O  O6  1  0.171969  0.885425  0.204132  1
  O  O7  1  0.828032  0.795868  0.114575  1
  O  O8  1  0.539672  0.854307  0.854306  1
  O  O9  1  0.460327  0.145694  0.145694  1
  O  O10  1  0.811337  0.215525  0.215525  1
  O  O11  1  0.188664  0.784475  0.784475  1
  O  O12  1  0.900789  0.773843  0.472168  1
  O  O13  1  0.099210  0.226158  0.527832  1
  O  O14  1  0.099211  0.527833  0.226157  1
  O  O15  1  0.900790  0.472167  0.773843  1
  Cr  Cr16  1  0.417717  0.726190  0.726191  1
  Cr  Cr17  1  0.582282  0.273810  0.273810  1
  Cr  Cr18  1  0.000001  0.744314  0.255686  1
  Cr  Cr19  1  0.000000  0.255686  0.744314  1
  Cd  Cd20  1  0.125336  0.210639  0.210639  1
  Cd  Cd21  1  0.874664  0.789361  0.789361  1
  Cd  Cd22  1  0.500000  0.813070  0.186931  1
  Cd  Cd23  1  0.499999  0.186930  0.813069  1
