# generated using pymatgen
data_YMo3O8
_symmetry_space_group_name_H-M   'P 1'
_cell_length_a   6.21105884
_cell_length_b   6.26900899
_cell_length_c   4.76023837
_cell_angle_alpha   90.17829714
_cell_angle_beta   89.77824946
_cell_angle_gamma   119.44907395
_symmetry_Int_Tables_number   1
_chemical_formula_structural   YMo3O8
_chemical_formula_sum   'Y1 Mo3 O8'
_cell_volume   161.40036437
_cell_formula_units_Z   1
loop_
 _symmetry_equiv_pos_site_id
 _symmetry_equiv_pos_as_xyz
  1  'x, y, z'
loop_
 _atom_site_type_symbol
 _atom_site_label
 _atom_site_symmetry_multiplicity
 _atom_site_fract_x
 _atom_site_fract_y
 _atom_site_fract_z
 _atom_site_occupancy
  Y  Y0  1  0.333494  0.666857  0.753226  1
  Mo  Mo1  1  0.833479  0.166798  0.253244  1
  Mo  Mo2  1  0.833524  0.666818  0.253293  1
  Mo  Mo3  1  0.333519  0.166865  0.253280  1
  O  O4  1  0.520846  0.023992  0.476761  1
  O  O5  1  0.675747  0.328491  0.037981  1
  O  O6  1  0.685415  0.846636  0.031640  1
  O  O7  1  0.162498  0.842740  0.037811  1
  O  O8  1  0.981636  0.487033  0.474865  1
  O  O9  1  0.991251  0.005149  0.468583  1
  O  O10  1  0.504513  0.490997  0.468655  1
  O  O11  1  0.146159  0.309702  0.029770  1
