# generated using pymatgen
data_YZr5O12
_symmetry_space_group_name_H-M   'P 1'
_cell_length_a   11.00201674
_cell_length_b   5.16995456
_cell_length_c   6.41527676
_cell_angle_alpha   66.23785954
_cell_angle_beta   55.12398237
_cell_angle_gamma   45.18140137
_symmetry_Int_Tables_number   1
_chemical_formula_structural   YZr5O12
_chemical_formula_sum   'Y1 Zr5 O12'
_cell_volume   212.34943699
_cell_formula_units_Z   1
loop_
 _symmetry_equiv_pos_site_id
 _symmetry_equiv_pos_as_xyz
  1  'x, y, z'
loop_
 _atom_site_type_symbol
 _atom_site_label
 _atom_site_symmetry_multiplicity
 _atom_site_fract_x
 _atom_site_fract_y
 _atom_site_fract_z
 _atom_site_occupancy
  Y  Y0  1  0.500000  0.500162  0.500000  1
  Zr  Zr1  1  0.000000  0.994295  1.000000  1
  Zr  Zr2  1  0.333730  0.001887  0.000878  1
  Zr  Zr3  1  0.165666  0.500876  0.501272  1
  Zr  Zr4  1  0.666270  0.003955  0.999122  1
  Zr  Zr5  1  0.834334  0.499147  0.498728  1
  O  O6  1  0.071622  0.000047  0.287128  1
  O  O7  1  0.093848  0.501658  0.220037  1
  O  O8  1  0.402009  0.024009  0.270272  1
  O  O9  1  0.233273  0.005634  0.790068  1
  O  O10  1  0.423506  0.503161  0.216771  1
  O  O11  1  0.249000  0.497257  0.732098  1
  O  O12  1  0.751000  0.976353  0.267902  1
  O  O13  1  0.576494  0.990450  0.783229  1
  O  O14  1  0.597991  0.500309  0.729728  1
  O  O15  1  0.766727  0.495518  0.209932  1
  O  O16  1  0.906152  0.003241  0.779963  1
  O  O17  1  0.928378  0.502043  0.712872  1
