# generated using pymatgen
data_Y13Cd58
_symmetry_space_group_name_H-M   'P 1'
_cell_length_a   15.79073189
_cell_length_b   15.79073194
_cell_length_c   15.56765380
_cell_angle_alpha   90.00000000
_cell_angle_beta   90.00000000
_cell_angle_gamma   119.99999991
_symmetry_Int_Tables_number   1
_chemical_formula_structural   Y13Cd58
_chemical_formula_sum   'Y26 Cd116'
_cell_volume   3361.69507622
_cell_formula_units_Z   2
loop_
 _symmetry_equiv_pos_site_id
 _symmetry_equiv_pos_as_xyz
  1  'x, y, z'
loop_
 _atom_site_type_symbol
 _atom_site_label
 _atom_site_symmetry_multiplicity
 _atom_site_fract_x
 _atom_site_fract_y
 _atom_site_fract_z
 _atom_site_occupancy
  Y  Y0  1  0.412148  0.206074  0.552809  1
  Y  Y1  1  0.871338  0.742676  0.250000  1
  Y  Y2  1  0.206074  0.412148  0.052809  1
  Y  Y3  1  0.088834  0.544417  0.750000  1
  Y  Y4  1  0.793926  0.587852  0.947191  1
  Y  Y5  1  0.793926  0.206074  0.552809  1
  Y  Y6  1  0.911166  0.455583  0.250000  1
  Y  Y7  1  0.793926  0.206074  0.947191  1
  Y  Y8  1  0.793926  0.587852  0.552809  1
  Y  Y9  1  0.455583  0.911166  0.750000  1
  Y  Y10  1  0.128662  0.871338  0.750000  1
  Y  Y11  1  0.871338  0.128662  0.250000  1
  Y  Y12  1  0.587852  0.793926  0.052809  1
  Y  Y13  1  0.587852  0.793926  0.447191  1
  Y  Y14  1  0.206074  0.793926  0.447191  1
  Y  Y15  1  0.000000  0.000000  0.000000  1
  Y  Y16  1  0.455583  0.544417  0.750000  1
  Y  Y17  1  0.544417  0.088834  0.250000  1
  Y  Y18  1  0.128662  0.257324  0.750000  1
  Y  Y19  1  0.742676  0.871338  0.750000  1
  Y  Y20  1  0.206074  0.412148  0.447191  1
  Y  Y21  1  0.412148  0.206074  0.947191  1
  Y  Y22  1  0.000000  0.000000  0.500000  1
  Y  Y23  1  0.257324  0.128662  0.250000  1
  Y  Y24  1  0.206074  0.793926  0.052809  1
  Y  Y25  1  0.544417  0.455583  0.250000  1
  Cd  Cd26  1  0.907857  0.092143  0.655769  1
  Cd  Cd27  1  1.000000  0.197466  0.000000  1
  Cd  Cd28  1  0.635444  0.964118  0.601537  1
  Cd  Cd29  1  0.364556  0.328674  0.398463  1
  Cd  Cd30  1  0.671326  0.635444  0.101537  1
  Cd  Cd31  1  0.600318  0.399682  0.051477  1
  Cd  Cd32  1  0.635444  0.671326  0.898463  1
  Cd  Cd33  1  0.964118  0.635444  0.101537  1
  Cd  Cd34  1  0.200636  0.600318  0.948523  1
  Cd  Cd35  1  0.092143  0.907857  0.344231  1
  Cd  Cd36  1  0.559674  0.119348  0.647418  1
  Cd  Cd37  1  0.815715  0.907857  0.344231  1
  Cd  Cd38  1  0.733725  0.266275  0.750000  1
  Cd  Cd39  1  0.440326  0.880652  0.352582  1
  Cd  Cd40  1  0.328674  0.364556  0.898463  1
  Cd  Cd41  1  0.035882  0.671326  0.898463  1
  Cd  Cd42  1  0.531740  0.765870  0.841460  1
  Cd  Cd43  1  0.802534  0.802534  0.000000  1
  Cd  Cd44  1  0.364556  0.035882  0.398463  1
  Cd  Cd45  1  1.000000  0.197466  0.500000  1
  Cd  Cd46  1  0.920132  0.644950  0.750000  1
  Cd  Cd47  1  0.197466  0.197466  0.500000  1
  Cd  Cd48  1  0.671326  0.035882  0.101537  1
  Cd  Cd49  1  0.600318  0.399682  0.448523  1
  Cd  Cd50  1  0.765870  0.531740  0.341460  1
  Cd  Cd51  1  0.765870  0.531740  0.158540  1
  Cd  Cd52  1  0.964118  0.328674  0.101537  1
  Cd  Cd53  1  0.666667  0.333333  0.596721  1
  Cd  Cd54  1  0.275182  0.920132  0.250000  1
  Cd  Cd55  1  0.468260  0.234130  0.341460  1
  Cd  Cd56  1  0.035882  0.364556  0.601537  1
  Cd  Cd57  1  0.333333  0.666667  0.750000  1
  Cd  Cd58  1  0.724818  0.079868  0.750000  1
  Cd  Cd59  1  0.035882  0.364556  0.898463  1
  Cd  Cd60  1  0.802534  0.000000  0.500000  1
  Cd  Cd61  1  0.600318  0.200636  0.448523  1
  Cd  Cd62  1  0.671326  0.035882  0.398463  1
  Cd  Cd63  1  0.355050  0.079868  0.750000  1
  Cd  Cd64  1  0.920132  0.275182  0.750000  1
  Cd  Cd65  1  0.000000  0.802534  0.000000  1
  Cd  Cd66  1  0.440326  0.559674  0.147418  1
  Cd  Cd67  1  0.119348  0.559674  0.352582  1
  Cd  Cd68  1  0.500000  0.000000  0.500000  1
  Cd  Cd69  1  0.907857  0.815715  0.844231  1
  Cd  Cd70  1  0.092143  0.184285  0.155769  1
  Cd  Cd71  1  0.035882  0.671326  0.601537  1
  Cd  Cd72  1  0.328674  0.364556  0.601537  1
  Cd  Cd73  1  0.559674  0.119348  0.852582  1
  Cd  Cd74  1  0.200636  0.600318  0.551477  1
  Cd  Cd75  1  0.635444  0.671326  0.601537  1
  Cd  Cd76  1  0.440326  0.559674  0.352582  1
  Cd  Cd77  1  0.000000  0.000000  0.250000  1
  Cd  Cd78  1  0.600318  0.200636  0.051477  1
  Cd  Cd79  1  0.799364  0.399682  0.448523  1
  Cd  Cd80  1  0.733725  0.467450  0.750000  1
  Cd  Cd81  1  0.399682  0.799364  0.948523  1
  Cd  Cd82  1  0.666667  0.333333  0.903279  1
  Cd  Cd83  1  0.234130  0.468260  0.841460  1
  Cd  Cd84  1  0.765870  0.234130  0.158540  1
  Cd  Cd85  1  0.275182  0.355050  0.250000  1
  Cd  Cd86  1  0.399682  0.600318  0.551477  1
  Cd  Cd87  1  0.364556  0.035882  0.101537  1
  Cd  Cd88  1  0.765870  0.234130  0.341460  1
  Cd  Cd89  1  0.815715  0.907857  0.155769  1
  Cd  Cd90  1  0.328674  0.964118  0.898463  1
  Cd  Cd91  1  0.880652  0.440326  0.852582  1
  Cd  Cd92  1  0.907857  0.815715  0.655769  1
  Cd  Cd93  1  0.119348  0.559674  0.147418  1
  Cd  Cd94  1  0.964118  0.328674  0.398463  1
  Cd  Cd95  1  0.644950  0.724818  0.250000  1
  Cd  Cd96  1  0.559674  0.440326  0.852582  1
  Cd  Cd97  1  0.468260  0.234130  0.158540  1
  Cd  Cd98  1  0.802534  0.802534  0.500000  1
  Cd  Cd99  1  0.000000  0.000000  0.750000  1
  Cd  Cd100  1  0.184285  0.092143  0.655769  1
  Cd  Cd101  1  0.197466  0.197466  0.000000  1
  Cd  Cd102  1  0.197466  0.000000  0.500000  1
  Cd  Cd103  1  0.079868  0.355050  0.250000  1
  Cd  Cd104  1  0.671326  0.635444  0.398463  1
  Cd  Cd105  1  0.531740  0.765870  0.658540  1
  Cd  Cd106  1  0.799364  0.399682  0.051477  1
  Cd  Cd107  1  0.364556  0.328674  0.101537  1
  Cd  Cd108  1  0.234130  0.765870  0.841460  1
  Cd  Cd109  1  0.666667  0.333333  0.250000  1
  Cd  Cd110  1  0.440326  0.880652  0.147418  1
  Cd  Cd111  1  0.500000  0.500000  0.000000  1
  Cd  Cd112  1  0.000000  0.500000  0.500000  1
  Cd  Cd113  1  0.234130  0.765870  0.658540  1
  Cd  Cd114  1  0.333333  0.666667  0.403279  1
  Cd  Cd115  1  0.197466  0.000000  0.000000  1
  Cd  Cd116  1  0.079868  0.724818  0.250000  1
  Cd  Cd117  1  0.000000  0.802534  0.500000  1
  Cd  Cd118  1  0.635444  0.964118  0.898463  1
  Cd  Cd119  1  0.500000  0.500000  0.500000  1
  Cd  Cd120  1  0.184285  0.092143  0.844231  1
  Cd  Cd121  1  0.532550  0.266275  0.750000  1
  Cd  Cd122  1  0.092143  0.907857  0.155769  1
  Cd  Cd123  1  0.907857  0.092143  0.844231  1
  Cd  Cd124  1  0.559674  0.440326  0.647418  1
  Cd  Cd125  1  0.355050  0.275182  0.750000  1
  Cd  Cd126  1  0.266275  0.733725  0.250000  1
  Cd  Cd127  1  0.964118  0.635444  0.398463  1
  Cd  Cd128  1  0.333333  0.666667  0.096721  1
  Cd  Cd129  1  0.266275  0.532550  0.250000  1
  Cd  Cd130  1  0.802534  0.000000  0.000000  1
  Cd  Cd131  1  0.644950  0.920132  0.250000  1
  Cd  Cd132  1  0.500000  0.000000  0.000000  1
  Cd  Cd133  1  0.880652  0.440326  0.647418  1
  Cd  Cd134  1  0.328674  0.964118  0.601537  1
  Cd  Cd135  1  0.000000  0.500000  0.000000  1
  Cd  Cd136  1  0.092143  0.184285  0.344231  1
  Cd  Cd137  1  0.399682  0.600318  0.948523  1
  Cd  Cd138  1  0.234130  0.468260  0.658540  1
  Cd  Cd139  1  0.724818  0.644950  0.750000  1
  Cd  Cd140  1  0.399682  0.799364  0.551477  1
  Cd  Cd141  1  0.467450  0.733725  0.250000  1
