# generated using pymatgen
data_Y(BIr)4
_symmetry_space_group_name_H-M   'P 1'
_cell_length_a   7.63940726
_cell_length_b   7.63940726
_cell_length_c   3.99717311
_cell_angle_alpha   90.00000000
_cell_angle_beta   90.00000000
_cell_angle_gamma   90.00000000
_symmetry_Int_Tables_number   1
_chemical_formula_structural   Y(BIr)4
_chemical_formula_sum   'Y2 B8 Ir8'
_cell_volume   233.27719430
_cell_formula_units_Z   2
loop_
 _symmetry_equiv_pos_site_id
 _symmetry_equiv_pos_as_xyz
  1  'x, y, z'
loop_
 _atom_site_type_symbol
 _atom_site_label
 _atom_site_symmetry_multiplicity
 _atom_site_fract_x
 _atom_site_fract_y
 _atom_site_fract_z
 _atom_site_occupancy
  Y  Y0  1  0.250000  0.250000  0.249999  1
  Y  Y1  1  0.750000  0.750000  0.750001  1
  B  B2  1  0.028835  0.591833  0.138757  1
  B  B3  1  0.471165  0.908167  0.138757  1
  B  B4  1  0.908167  0.028835  0.361244  1
  B  B5  1  0.591833  0.471165  0.361244  1
  B  B6  1  0.408166  0.528835  0.638756  1
  B  B7  1  0.091834  0.971166  0.638756  1
  B  B8  1  0.528835  0.091834  0.861243  1
  B  B9  1  0.971166  0.408166  0.861243  1
  Ir  Ir10  1  0.409879  0.640461  0.137492  1
  Ir  Ir11  1  0.090121  0.859540  0.137492  1
  Ir  Ir12  1  0.640461  0.090121  0.362507  1
  Ir  Ir13  1  0.859540  0.409879  0.362507  1
  Ir  Ir14  1  0.140461  0.590120  0.637491  1
  Ir  Ir15  1  0.359539  0.909879  0.637491  1
  Ir  Ir16  1  0.909879  0.140461  0.862508  1
  Ir  Ir17  1  0.590120  0.359539  0.862508  1
