# generated using pymatgen
data_Y(BRh)4
_symmetry_space_group_name_H-M   'P 1'
_cell_length_a   5.34709839
_cell_length_b   5.34709839
_cell_length_c   7.47089216
_cell_angle_alpha   90.00000000
_cell_angle_beta   90.00000000
_cell_angle_gamma   90.00000000
_symmetry_Int_Tables_number   1
_chemical_formula_structural   Y(BRh)4
_chemical_formula_sum   'Y2 B8 Rh8'
_cell_volume   213.60372326
_cell_formula_units_Z   2
loop_
 _symmetry_equiv_pos_site_id
 _symmetry_equiv_pos_as_xyz
  1  'x, y, z'
loop_
 _atom_site_type_symbol
 _atom_site_label
 _atom_site_symmetry_multiplicity
 _atom_site_fract_x
 _atom_site_fract_y
 _atom_site_fract_z
 _atom_site_occupancy
  B  B0  1  0.918808  0.750000  0.899778  1
  B  B1  1  0.250000  0.081192  0.600222  1
  B  B2  1  0.581192  0.750000  0.899778  1
  B  B3  1  0.250000  0.418808  0.600222  1
  B  B4  1  0.750000  0.581192  0.399778  1
  B  B5  1  0.750000  0.918808  0.399778  1
  B  B6  1  0.081192  0.250000  0.100222  1
  B  B7  1  0.418808  0.250000  0.100222  1
  Y  Y8  1  0.750000  0.250000  0.750000  1
  Y  Y9  1  0.250000  0.750000  0.250000  1
  Rh  Rh10  1  0.498635  0.750000  0.605117  1
  Rh  Rh11  1  0.250000  0.501365  0.894883  1
  Rh  Rh12  1  0.750000  0.498635  0.105117  1
  Rh  Rh13  1  0.750000  0.001365  0.105117  1
  Rh  Rh14  1  0.998635  0.250000  0.394883  1
  Rh  Rh15  1  0.501365  0.250000  0.394883  1
  Rh  Rh16  1  0.250000  0.998635  0.894883  1
  Rh  Rh17  1  0.001365  0.750000  0.605117  1
