# generated using pymatgen
data_YCrO4
_symmetry_space_group_name_H-M   'P 1'
_cell_length_a   5.06583694
_cell_length_b   5.06583761
_cell_length_c   6.73156793
_cell_angle_alpha   112.10311582
_cell_angle_beta   112.10311885
_cell_angle_gamma   89.99999781
_symmetry_Int_Tables_number   1
_chemical_formula_structural   YCrO4
_chemical_formula_sum   'Y2 Cr2 O8'
_cell_volume   146.26089591
_cell_formula_units_Z   2
loop_
 _symmetry_equiv_pos_site_id
 _symmetry_equiv_pos_as_xyz
  1  'x, y, z'
loop_
 _atom_site_type_symbol
 _atom_site_label
 _atom_site_symmetry_multiplicity
 _atom_site_fract_x
 _atom_site_fract_y
 _atom_site_fract_z
 _atom_site_occupancy
  Y  Y0  1  0.375000  0.125000  0.750000  1
  Y  Y1  1  0.625000  0.875000  0.250000  1
  Cr  Cr2  1  0.875000  0.625000  0.750000  1
  Cr  Cr3  1  0.125000  0.375000  0.250000  1
  O  O4  1  0.058100  0.194745  0.405320  1
  O  O5  1  0.694744  0.847221  0.905320  1
  O  O6  1  0.347221  0.710576  0.405320  1
  O  O7  1  0.210576  0.558100  0.905320  1
  O  O8  1  0.789424  0.441900  0.094680  1
  O  O9  1  0.305256  0.152779  0.094680  1
  O  O10  1  0.941900  0.805256  0.594680  1
  O  O11  1  0.652779  0.289424  0.594680  1
