# generated using pymatgen
data_Cr2FeO4
_symmetry_space_group_name_H-M   'P 1'
_cell_length_a   5.99383593
_cell_length_b   5.99383572
_cell_length_c   6.12880221
_cell_angle_alpha   59.25228755
_cell_angle_beta   59.25228874
_cell_angle_gamma   63.28914492
_symmetry_Int_Tables_number   1
_chemical_formula_structural   Cr2FeO4
_chemical_formula_sum   'Cr4 Fe2 O8'
_cell_volume   157.26866546
_cell_formula_units_Z   2
loop_
 _symmetry_equiv_pos_site_id
 _symmetry_equiv_pos_as_xyz
  1  'x, y, z'
loop_
 _atom_site_type_symbol
 _atom_site_label
 _atom_site_symmetry_multiplicity
 _atom_site_fract_x
 _atom_site_fract_y
 _atom_site_fract_z
 _atom_site_occupancy
  Cr  Cr0  1  0.004277  0.004277  0.995723  1
  Cr  Cr1  1  0.245723  0.245723  0.254277  1
  Cr  Cr2  1  0.625000  0.625000  0.125000  1
  Cr  Cr3  1  0.625000  0.625000  0.625000  1
  Fe  Fe4  1  0.125000  0.625000  0.625000  1
  Fe  Fe5  1  0.625000  0.125000  0.625000  1
  O  O6  1  0.375645  0.375645  0.387359  1
  O  O7  1  0.418509  0.851290  0.365100  1
  O  O8  1  0.375645  0.375645  0.861352  1
  O  O9  1  0.851290  0.418509  0.365100  1
  O  O10  1  0.398710  0.831491  0.884900  1
  O  O11  1  0.874355  0.874355  0.388648  1
  O  O12  1  0.831491  0.398710  0.884900  1
  O  O13  1  0.874355  0.874355  0.862641  1
