# generated using pymatgen
data_Y(CuO2)2
_symmetry_space_group_name_H-M   'P 1'
_cell_length_a   5.71937457
_cell_length_b   5.71161992
_cell_length_c   6.28517451
_cell_angle_alpha   116.95740379
_cell_angle_beta   116.99714894
_cell_angle_gamma   90.13151950
_symmetry_Int_Tables_number   1
_chemical_formula_structural   Y(CuO2)2
_chemical_formula_sum   'Y2 Cu4 O8'
_cell_volume   157.36946804
_cell_formula_units_Z   2
loop_
 _symmetry_equiv_pos_site_id
 _symmetry_equiv_pos_as_xyz
  1  'x, y, z'
loop_
 _atom_site_type_symbol
 _atom_site_label
 _atom_site_symmetry_multiplicity
 _atom_site_fract_x
 _atom_site_fract_y
 _atom_site_fract_z
 _atom_site_occupancy
  Y  Y0  1  0.874976  0.124976  0.749953  1
  Y  Y1  1  0.125024  0.875024  0.250047  1
  Cu  Cu2  1  -0.000000  0.500000  0.500000  1
  Cu  Cu3  1  0.500000  0.500000  0.500000  1
  Cu  Cu4  1  0.500000  -0.000000  -0.000000  1
  Cu  Cu5  1  0.500000  0.500000  -0.000000  1
  O  O6  1  0.529552  0.135469  0.353245  1
  O  O7  1  0.823693  0.717776  0.353245  1
  O  O8  1  0.176307  0.282224  0.646755  1
  O  O9  1  0.470448  0.864531  0.646755  1
  O  O10  1  0.718596  0.527960  0.853948  1
  O  O11  1  0.135352  0.825989  0.853948  1
  O  O12  1  0.281404  0.472040  0.146052  1
  O  O13  1  0.864648  0.174011  0.146052  1
