# generated using pymatgen
data_YLu3
_symmetry_space_group_name_H-M   'P 1'
_cell_length_a   7.11845522
_cell_length_b   7.11845386
_cell_length_c   5.56532958
_cell_angle_alpha   90.00000000
_cell_angle_beta   90.00000000
_cell_angle_gamma   119.99999704
_symmetry_Int_Tables_number   1
_chemical_formula_structural   YLu3
_chemical_formula_sum   'Y2 Lu6'
_cell_volume   244.22660069
_cell_formula_units_Z   2
loop_
 _symmetry_equiv_pos_site_id
 _symmetry_equiv_pos_as_xyz
  1  'x, y, z'
loop_
 _atom_site_type_symbol
 _atom_site_label
 _atom_site_symmetry_multiplicity
 _atom_site_fract_x
 _atom_site_fract_y
 _atom_site_fract_z
 _atom_site_occupancy
  Y  Y0  1  0.333333  0.666666  0.749999  1
  Y  Y1  1  0.666667  0.333333  0.250000  1
  Lu  Lu2  1  0.165227  0.330455  0.250000  1
  Lu  Lu3  1  0.669546  0.834773  0.250000  1
  Lu  Lu4  1  0.165228  0.834773  0.250000  1
  Lu  Lu5  1  0.834774  0.669547  0.749999  1
  Lu  Lu6  1  0.330453  0.165226  0.749999  1
  Lu  Lu7  1  0.834772  0.165226  0.749999  1
