# generated using pymatgen
data_YTa7O19
_symmetry_space_group_name_H-M   'P 1'
_cell_length_a   6.26644077
_cell_length_b   6.26644229
_cell_length_c   20.11357120
_cell_angle_alpha   89.99987396
_cell_angle_beta   89.99978569
_cell_angle_gamma   119.99983285
_symmetry_Int_Tables_number   1
_chemical_formula_structural   YTa7O19
_chemical_formula_sum   'Y2 Ta14 O38'
_cell_volume   684.01013057
_cell_formula_units_Z   2
loop_
 _symmetry_equiv_pos_site_id
 _symmetry_equiv_pos_as_xyz
  1  'x, y, z'
loop_
 _atom_site_type_symbol
 _atom_site_label
 _atom_site_symmetry_multiplicity
 _atom_site_fract_x
 _atom_site_fract_y
 _atom_site_fract_z
 _atom_site_occupancy
  Y  Y0  1  0.333291  0.666717  0.999999  1
  Y  Y1  1  0.333295  0.666577  0.500000  1
  Ta  Ta2  1  0.360333  0.360220  0.155446  1
  Ta  Ta3  1  0.360329  0.360222  0.344542  1
  Ta  Ta4  1  0.639789  0.639677  0.655456  1
  Ta  Ta5  1  0.639788  0.639677  0.844552  1
  Ta  Ta6  1  0.360335  0.000112  0.844546  1
  Ta  Ta7  1  0.360337  0.000110  0.655450  1
  Ta  Ta8  1  0.666658  0.333320  0.500000  1
  Ta  Ta9  1  0.666662  0.333340  0.000000  1
  Ta  Ta10  1  0.639787  0.000109  0.155452  1
  Ta  Ta11  1  0.639782  0.000111  0.344550  1
  Ta  Ta12  1  0.999893  0.639672  0.155453  1
  Ta  Ta13  1  0.999891  0.639672  0.344549  1
  Ta  Ta14  1  0.999896  0.360217  0.844550  1
  Ta  Ta15  1  0.999896  0.360219  0.655455  1
  O  O16  1  0.999765  0.752678  0.653281  1
  O  O17  1  0.999765  0.752680  0.846720  1
  O  O18  1  0.042418  0.626481  0.250002  1
  O  O19  1  0.247326  0.000240  0.346718  1
  O  O20  1  0.247324  0.000241  0.153285  1
  O  O21  1  0.042416  0.415932  0.749999  1
  O  O22  1  0.999765  0.247089  0.153281  1
  O  O23  1  0.999760  0.247093  0.346719  1
  O  O24  1  0.373528  0.957589  0.749997  1
  O  O25  1  0.333334  0.666674  0.131018  1
  O  O26  1  0.333333  0.666667  0.868978  1
  O  O27  1  0.333334  0.666660  0.631018  1
  O  O28  1  0.333336  0.666664  0.368981  1
  O  O29  1  0.584073  0.957584  0.250003  1
  O  O30  1  0.247325  0.247080  0.653284  1
  O  O31  1  0.247325  0.247083  0.846715  1
  O  O32  1  0.373519  0.415937  0.250000  1
  O  O33  1  0.428012  0.383009  0.055698  1
  O  O34  1  0.428000  0.382996  0.444305  1
  O  O35  1  0.752908  0.000241  0.846720  1
  O  O36  1  0.752908  0.000242  0.653281  1
  O  O37  1  0.584075  0.626491  0.749999  1
  O  O38  1  0.616994  0.571991  0.944302  1
  O  O39  1  0.617000  0.571985  0.555696  1
  O  O40  1  0.752909  0.752667  0.153282  1
  O  O41  1  0.752915  0.752676  0.346716  1
  O  O42  1  0.428016  0.045008  0.555697  1
  O  O43  1  0.428005  0.045006  0.944305  1
  O  O44  1  0.666665  0.333333  0.333527  1
  O  O45  1  0.666671  0.333337  0.833529  1
  O  O46  1  0.666672  0.333336  0.666471  1
  O  O47  1  0.666670  0.333333  0.166473  1
  O  O48  1  0.617000  0.045017  0.055699  1
  O  O49  1  0.616995  0.045004  0.444303  1
  O  O50  1  0.954996  0.572003  0.055696  1
  O  O51  1  0.954983  0.571977  0.444301  1
  O  O52  1  0.955001  0.382999  0.555694  1
  O  O53  1  0.954992  0.383006  0.944303  1
