# generated using pymatgen
data_YTa3O9
_symmetry_space_group_name_H-M   'P 1'
_cell_length_a   5.31756726
_cell_length_b   7.54442321
_cell_length_c   8.31815903
_cell_angle_alpha   90.00000000
_cell_angle_beta   92.62064602
_cell_angle_gamma   90.00000000
_symmetry_Int_Tables_number   1
_chemical_formula_structural   YTa3O9
_chemical_formula_sum   'Y2 Ta6 O18'
_cell_volume   333.35871440
_cell_formula_units_Z   2
loop_
 _symmetry_equiv_pos_site_id
 _symmetry_equiv_pos_as_xyz
  1  'x, y, z'
loop_
 _atom_site_type_symbol
 _atom_site_label
 _atom_site_symmetry_multiplicity
 _atom_site_fract_x
 _atom_site_fract_y
 _atom_site_fract_z
 _atom_site_occupancy
  Y  Y0  1  0.036818  0.750000  0.435344  1
  Y  Y1  1  0.963182  0.250000  0.564656  1
  Ta  Ta2  1  0.000000  0.000000  0.000000  1
  Ta  Ta3  1  0.000000  0.500000  0.000000  1
  Ta  Ta4  1  0.469834  0.506073  0.695485  1
  Ta  Ta5  1  0.469834  0.993927  0.695485  1
  Ta  Ta6  1  0.530166  0.006073  0.304515  1
  Ta  Ta7  1  0.530166  0.493927  0.304515  1
  O  O8  1  0.090681  0.750000  0.978755  1
  O  O9  1  0.149045  0.063673  0.784881  1
  O  O10  1  0.149045  0.436327  0.784881  1
  O  O11  1  0.257682  0.041340  0.468001  1
  O  O12  1  0.257682  0.458660  0.468001  1
  O  O13  1  0.340599  0.750000  0.656117  1
  O  O14  1  0.324556  0.050256  0.121475  1
  O  O15  1  0.324556  0.449744  0.121475  1
  O  O16  1  0.423200  0.750000  0.315695  1
  O  O17  1  0.576800  0.250000  0.684305  1
  O  O18  1  0.675444  0.949744  0.878525  1
  O  O19  1  0.675444  0.550256  0.878525  1
  O  O20  1  0.659401  0.250000  0.343883  1
  O  O21  1  0.742318  0.958660  0.531999  1
  O  O22  1  0.742318  0.541340  0.531999  1
  O  O23  1  0.850955  0.936327  0.215119  1
  O  O24  1  0.850955  0.563673  0.215119  1
  O  O25  1  0.909319  0.250000  0.021245  1
