# generated using pymatgen
data_YTa3O9
_symmetry_space_group_name_H-M   'P 1'
_cell_length_a   5.56215754
_cell_length_b   8.82568456
_cell_length_c   8.86136786
_cell_angle_alpha   66.49588641
_cell_angle_beta   71.70416788
_cell_angle_gamma   71.60966544
_symmetry_Int_Tables_number   1
_chemical_formula_structural   YTa3O9
_chemical_formula_sum   'Y2 Ta6 O18'
_cell_volume   369.58949112
_cell_formula_units_Z   2
loop_
 _symmetry_equiv_pos_site_id
 _symmetry_equiv_pos_as_xyz
  1  'x, y, z'
loop_
 _atom_site_type_symbol
 _atom_site_label
 _atom_site_symmetry_multiplicity
 _atom_site_fract_x
 _atom_site_fract_y
 _atom_site_fract_z
 _atom_site_occupancy
  Y  Y0  1  0.323682  0.359359  0.001147  1
  Y  Y1  1  0.694970  0.643460  0.997196  1
  Ta  Ta2  1  0.076262  0.590418  0.258263  1
  Ta  Ta3  1  0.584490  0.080791  0.752971  1
  Ta  Ta4  1  0.254530  0.763087  0.733034  1
  Ta  Ta5  1  0.416566  0.919068  0.244788  1
  Ta  Ta6  1  0.748937  0.236355  0.264942  1
  Ta  Ta7  1  0.925433  0.407903  0.743010  1
  O  O8  1  0.094080  0.099484  0.226585  1
  O  O9  1  0.000391  0.499148  0.499888  1
  O  O10  1  0.501952  0.997046  0.999272  1
  O  O11  1  0.166339  0.643915  0.999500  1
  O  O12  1  0.571572  0.101125  0.228271  1
  O  O13  1  0.070175  0.574952  0.778173  1
  O  O14  1  0.262751  0.752122  0.227863  1
  O  O15  1  0.249255  0.250742  0.772172  1
  O  O16  1  0.426688  0.428673  0.219441  1
  O  O17  1  0.817951  0.356407  0.000184  1
  O  O18  1  0.336081  0.834250  0.494297  1
  O  O19  1  0.662384  0.166839  0.503496  1
  O  O20  1  0.725979  0.250628  0.772984  1
  O  O21  1  0.928478  0.423576  0.220681  1
  O  O22  1  0.746770  0.745418  0.227540  1
  O  O23  1  0.426103  0.899095  0.770928  1
  O  O24  1  0.569031  0.572507  0.780601  1
  O  O25  1  0.906038  0.901269  0.768474  1
