# generated using pymatgen
data_Y2Zr24O51
_symmetry_space_group_name_H-M   'P 1'
_cell_length_a   3.65864841
_cell_length_b   3.64465701
_cell_length_c   69.04576882
_cell_angle_alpha   90.00000000
_cell_angle_beta   90.00000000
_cell_angle_gamma   90.00000000
_symmetry_Int_Tables_number   1
_chemical_formula_structural   Y2Zr24O51
_chemical_formula_sum   'Y2 Zr24 O51'
_cell_volume   920.69208683
_cell_formula_units_Z   1
loop_
 _symmetry_equiv_pos_site_id
 _symmetry_equiv_pos_as_xyz
  1  'x, y, z'
loop_
 _atom_site_type_symbol
 _atom_site_label
 _atom_site_symmetry_multiplicity
 _atom_site_fract_x
 _atom_site_fract_y
 _atom_site_fract_z
 _atom_site_occupancy
  Y  Y0  1  0.250000  0.750000  0.985035  1
  Y  Y1  1  0.750000  0.250000  0.940059  1
  Zr  Zr2  1  0.250000  0.750000  0.058732  1
  Zr  Zr3  1  0.250000  0.750000  0.134303  1
  Zr  Zr4  1  0.250000  0.750000  0.211034  1
  Zr  Zr5  1  0.250000  0.750000  0.288149  1
  Zr  Zr6  1  0.250000  0.750000  0.365258  1
  Zr  Zr7  1  0.250000  0.750000  0.442276  1
  Zr  Zr8  1  0.250000  0.750000  0.519235  1
  Zr  Zr9  1  0.250000  0.750000  0.596160  1
  Zr  Zr10  1  0.250000  0.750000  0.673044  1
  Zr  Zr11  1  0.250000  0.750000  0.749836  1
  Zr  Zr12  1  0.250000  0.750000  0.826490  1
  Zr  Zr13  1  0.250000  0.750000  0.902893  1
  Zr  Zr14  1  0.750000  0.250000  0.021432  1
  Zr  Zr15  1  0.750000  0.250000  0.096298  1
  Zr  Zr16  1  0.750000  0.250000  0.172531  1
  Zr  Zr17  1  0.750000  0.250000  0.249522  1
  Zr  Zr18  1  0.750000  0.250000  0.326659  1
  Zr  Zr19  1  0.750000  0.250000  0.403723  1
  Zr  Zr20  1  0.750000  0.250000  0.480707  1
  Zr  Zr21  1  0.750000  0.250000  0.634555  1
  Zr  Zr22  1  0.750000  0.250000  0.557648  1
  Zr  Zr23  1  0.750000  0.250000  0.788131  1
  Zr  Zr24  1  0.750000  0.250000  0.711405  1
  Zr  Zr25  1  0.750000  0.250000  0.864695  1
  O  O26  1  0.250000  0.250000  0.001878  1
  O  O27  1  0.250000  0.250000  0.040627  1
  O  O28  1  0.250000  0.250000  0.079691  1
  O  O29  1  0.250000  0.250000  0.157283  1
  O  O30  1  0.250000  0.250000  0.118536  1
  O  O31  1  0.250000  0.250000  0.195920  1
  O  O32  1  0.250000  0.250000  0.234568  1
  O  O33  1  0.250000  0.250000  0.273168  1
  O  O34  1  0.250000  0.250000  0.311781  1
  O  O35  1  0.250000  0.250000  0.350336  1
  O  O36  1  0.250000  0.250000  0.388895  1
  O  O37  1  0.250000  0.250000  0.427393  1
  O  O38  1  0.250000  0.250000  0.465906  1
  O  O39  1  0.250000  0.250000  0.542851  1
  O  O40  1  0.250000  0.250000  0.504367  1
  O  O41  1  0.250000  0.250000  0.581287  1
  O  O42  1  0.250000  0.250000  0.619743  1
  O  O43  1  0.250000  0.250000  0.658143  1
  O  O44  1  0.250000  0.250000  0.696548  1
  O  O45  1  0.250000  0.250000  0.734873  1
  O  O46  1  0.250000  0.250000  0.773199  1
  O  O47  1  0.250000  0.250000  0.811441  1
  O  O48  1  0.250000  0.250000  0.849657  1
  O  O49  1  0.250000  0.250000  0.887688  1
  O  O50  1  0.250000  0.250000  0.925396  1
  O  O51  1  0.750000  0.750000  0.075533  1
  O  O52  1  0.750000  0.750000  0.225847  1
  O  O53  1  0.750000  0.750000  0.149583  1
  O  O54  1  0.750000  0.750000  0.380008  1
  O  O55  1  0.750000  0.750000  0.302872  1
  O  O56  1  0.750000  0.750000  0.534043  1
  O  O57  1  0.750000  0.750000  0.457064  1
  O  O58  1  0.750000  0.750000  0.687841  1
  O  O59  1  0.750000  0.750000  0.039583  1
  O  O60  1  0.750000  0.750000  0.610970  1
  O  O61  1  0.750000  0.750000  0.841313  1
  O  O62  1  0.750000  0.750000  0.764616  1
  O  O63  1  0.750000  0.750000  0.112213  1
  O  O64  1  0.750000  0.750000  0.187570  1
  O  O65  1  0.750000  0.750000  0.918018  1
  O  O66  1  0.750000  0.750000  0.003682  1
  O  O67  1  0.750000  0.750000  0.264337  1
  O  O68  1  0.750000  0.750000  0.341462  1
  O  O69  1  0.750000  0.750000  0.495579  1
  O  O70  1  0.750000  0.750000  0.418566  1
  O  O71  1  0.750000  0.750000  0.649432  1
  O  O72  1  0.750000  0.750000  0.572531  1
  O  O73  1  0.750000  0.750000  0.802988  1
  O  O74  1  0.750000  0.750000  0.726262  1
  O  O75  1  0.750000  0.750000  0.962080  1
  O  O76  1  0.750000  0.750000  0.879686  1
