# generated using pymatgen
data_Y3(B3Os4)2
_symmetry_space_group_name_H-M   'P 1'
_cell_length_a   5.52517370
_cell_length_b   5.52924701
_cell_length_c   9.26282345
_cell_angle_alpha   81.43030075
_cell_angle_beta   72.64780268
_cell_angle_gamma   60.02436632
_symmetry_Int_Tables_number   1
_chemical_formula_structural   Y3(B3Os4)2
_chemical_formula_sum   'Y3 B6 Os8'
_cell_volume   233.97188672
_cell_formula_units_Z   1
loop_
 _symmetry_equiv_pos_site_id
 _symmetry_equiv_pos_as_xyz
  1  'x, y, z'
loop_
 _atom_site_type_symbol
 _atom_site_label
 _atom_site_symmetry_multiplicity
 _atom_site_fract_x
 _atom_site_fract_y
 _atom_site_fract_z
 _atom_site_occupancy
  Y  Y0  1  0.000000  0.000000  0.000000  1
  Y  Y1  1  0.820293  0.000000  0.359414  1
  Y  Y2  1  0.179707  0.000000  0.640586  1
  B  B3  1  0.176051  0.297479  0.350419  1
  B  B4  1  0.823949  0.702521  0.649581  1
  B  B5  1  0.526470  0.297479  0.649581  1
  B  B6  1  0.318021  0.363959  0.000000  1
  B  B7  1  0.473530  0.702521  0.350419  1
  B  B8  1  0.681979  0.636041  0.000000  1
  Os  Os9  1  0.579747  0.000000  0.840506  1
  Os  Os10  1  0.409730  0.500000  0.180541  1
  Os  Os11  1  0.909730  0.500000  0.180541  1
  Os  Os12  1  0.090270  0.500000  0.819459  1
  Os  Os13  1  0.420253  0.000000  0.159494  1
  Os  Os14  1  0.750000  0.500000  0.500000  1
  Os  Os15  1  0.590270  0.500000  0.819459  1
  Os  Os16  1  0.250000  0.500000  0.500000  1
