# generated using pymatgen
data_Dy29Y3O48
_symmetry_space_group_name_H-M   'P 1'
_cell_length_a   9.24480788
_cell_length_b   9.24379677
_cell_length_c   15.09416606
_cell_angle_alpha   90.00126675
_cell_angle_beta   90.00760999
_cell_angle_gamma   109.47139384
_symmetry_Int_Tables_number   1
_chemical_formula_structural   Dy29Y3O48
_chemical_formula_sum   'Dy29 Y3 O48'
_cell_volume   1216.13187608
_cell_formula_units_Z   1
loop_
 _symmetry_equiv_pos_site_id
 _symmetry_equiv_pos_as_xyz
  1  'x, y, z'
loop_
 _atom_site_type_symbol
 _atom_site_label
 _atom_site_symmetry_multiplicity
 _atom_site_fract_x
 _atom_site_fract_y
 _atom_site_fract_z
 _atom_site_occupancy
  Dy  Dy0  1  0.907779  0.157807  0.375058  1
  Dy  Dy1  1  0.592149  0.342278  0.125099  1
  Dy  Dy2  1  0.483451  0.016352  0.266506  1
  Dy  Dy3  1  0.733618  0.766157  0.016381  1
  Dy  Dy4  1  0.250113  0.250053  0.250070  1
  Dy  Dy5  1  0.749944  0.749870  0.250045  1
  Dy  Dy6  1  0.000071  0.500091  0.999966  1
  Dy  Dy7  1  0.500071  0.000090  0.499968  1
  Dy  Dy8  1  0.391360  0.608517  0.141419  1
  Dy  Dy9  1  0.891400  0.108605  0.641371  1
  Dy  Dy10  1  0.641413  0.358579  0.391387  1
  Dy  Dy11  1  0.016496  0.483736  0.233670  1
  Dy  Dy12  1  0.766540  0.733596  0.483557  1
  Dy  Dy13  1  0.407873  0.657873  0.374925  1
  Dy  Dy14  1  0.092197  0.842085  0.125058  1
  Dy  Dy15  1  0.592298  0.342138  0.625015  1
  Dy  Dy16  1  0.907971  0.157919  0.874883  1
  Dy  Dy17  1  0.983445  0.516330  0.766437  1
  Dy  Dy18  1  0.233577  0.266272  0.516380  1
  Dy  Dy19  1  0.108603  0.891386  0.358631  1
  Dy  Dy20  1  0.249973  0.249826  0.750011  1
  Dy  Dy21  1  0.750111  0.750084  0.750039  1
  Dy  Dy22  1  0.999886  0.499950  0.499994  1
  Dy  Dy23  1  0.608646  0.391481  0.858581  1
  Dy  Dy24  1  0.516491  0.983714  0.733604  1
  Dy  Dy25  1  0.266492  0.233717  0.983555  1
  Dy  Dy26  1  0.092069  0.842151  0.625025  1
  Dy  Dy27  1  0.407707  0.657698  0.874989  1
  Dy  Dy28  1  0.141270  0.858537  0.891347  1
  Y  Y29  1  0.858791  0.141427  0.108686  1
  Y  Y30  1  0.499878  0.999953  0.000000  1
  Y  Y31  1  0.358636  0.641384  0.608645  1
  O  O32  1  0.603644  0.092907  0.135598  1
  O  O33  1  0.848995  0.391841  0.119708  1
  O  O34  1  0.641410  0.598946  0.130380  1
  O  O35  1  0.239820  0.000522  0.228780  1
  O  O36  1  0.651042  0.108578  0.380318  1
  O  O37  1  0.342818  0.353971  0.114699  1
  O  O38  1  0.037521  0.266756  0.005300  1
  O  O39  1  0.895928  0.407101  0.364642  1
  O  O40  1  0.983826  0.713065  0.255660  1
  O  O41  1  0.875221  0.906251  0.135961  1
  O  O42  1  0.473160  0.744455  0.015602  1
  O  O43  1  0.973179  0.244928  0.515663  1
  O  O44  1  0.504925  0.276806  0.265773  1
  O  O45  1  0.156684  0.625323  0.114106  1
  O  O46  1  0.656664  0.125301  0.614081  1
  O  O47  1  0.624732  0.593305  0.364082  1
  O  O48  1  0.995224  0.223463  0.234494  1
  O  O49  1  0.157144  0.145923  0.385400  1
  O  O50  1  0.463092  0.233813  0.494427  1
  O  O51  1  0.516203  0.786925  0.244411  1
  O  O52  1  0.250073  0.989936  0.021187  1
  O  O53  1  0.750513  0.489840  0.521208  1
  O  O54  1  0.260179  0.499541  0.271234  1
  O  O55  1  0.858585  0.901021  0.369657  1
  O  O56  1  0.141362  0.098941  0.630305  1
  O  O57  1  0.739827  0.500554  0.728757  1
  O  O58  1  0.249321  0.509965  0.478585  1
  O  O59  1  0.749762  0.009873  0.978614  1
  O  O60  1  0.842866  0.853993  0.614642  1
  O  O61  1  0.537476  0.766672  0.505307  1
  O  O62  1  0.483866  0.213069  0.755635  1
  O  O63  1  0.343320  0.874678  0.385948  1
  O  O64  1  0.375246  0.406286  0.635910  1
  O  O65  1  0.004942  0.776772  0.765710  1
  O  O66  1  0.843295  0.374654  0.885925  1
  O  O67  1  0.124759  0.093338  0.864028  1
  O  O68  1  0.026876  0.755057  0.484341  1
  O  O69  1  0.495241  0.723427  0.734427  1
  O  O70  1  0.526894  0.255538  0.984406  1
  O  O71  1  0.657192  0.645955  0.885342  1
  O  O72  1  0.963037  0.733718  0.994434  1
  O  O73  1  0.103326  0.592665  0.635394  1
  O  O74  1  0.016231  0.286922  0.744386  1
  O  O75  1  0.348928  0.891781  0.619687  1
  O  O76  1  0.760184  0.999565  0.771213  1
  O  O77  1  0.358541  0.401018  0.869583  1
  O  O78  1  0.150978  0.608517  0.880298  1
  O  O79  1  0.395625  0.906866  0.864449  1
