# generated using pymatgen
data_Y3(Fe31B7)2
_symmetry_space_group_name_H-M   'P 1'
_cell_length_a   10.49820103
_cell_length_b   10.49820101
_cell_length_c   10.49820071
_cell_angle_alpha   109.47122191
_cell_angle_beta   109.47122182
_cell_angle_gamma   109.47121949
_symmetry_Int_Tables_number   1
_chemical_formula_structural   Y3(Fe31B7)2
_chemical_formula_sum   'Y3 Fe62 B14'
_cell_volume   890.68213775
_cell_formula_units_Z   1
loop_
 _symmetry_equiv_pos_site_id
 _symmetry_equiv_pos_as_xyz
  1  'x, y, z'
loop_
 _atom_site_type_symbol
 _atom_site_label
 _atom_site_symmetry_multiplicity
 _atom_site_fract_x
 _atom_site_fract_y
 _atom_site_fract_z
 _atom_site_occupancy
  B  B0  1  0.000000  0.175171  0.175171  1
  B  B1  1  0.175171  0.000000  0.175171  1
  B  B2  1  0.824829  1.000000  0.824829  1
  B  B3  1  0.824829  0.824829  1.000000  1
  B  B4  1  0.175171  0.175171  0.000000  1
  B  B5  1  1.000000  0.824829  0.824829  1
  B  B6  1  0.177933  0.177933  0.177933  1
  B  B7  1  0.177933  0.000000  0.000000  1
  B  B8  1  0.000000  0.177933  1.000000  1
  B  B9  1  1.000000  1.000000  0.177933  1
  B  B10  1  1.000000  0.822067  0.000000  1
  B  B11  1  0.000000  0.000000  0.822067  1
  B  B12  1  0.822067  1.000000  1.000000  1
  B  B13  1  0.822067  0.822067  0.822067  1
  Fe  Fe14  1  0.250000  0.500000  0.750000  1
  Fe  Fe15  1  0.500000  0.750000  0.250000  1
  Fe  Fe16  1  0.500000  0.250000  0.750000  1
  Fe  Fe17  1  0.750000  0.500000  0.250000  1
  Fe  Fe18  1  0.250000  0.750000  0.500000  1
  Fe  Fe19  1  0.750000  0.250000  0.500000  1
  Fe  Fe20  1  0.383704  0.383704  0.383704  1
  Fe  Fe21  1  0.383704  0.000000  0.000000  1
  Fe  Fe22  1  0.000000  0.383704  1.000000  1
  Fe  Fe23  1  1.000000  1.000000  0.383704  1
  Fe  Fe24  1  1.000000  0.616296  0.000000  1
  Fe  Fe25  1  0.000000  0.000000  0.616296  1
  Fe  Fe26  1  0.616296  1.000000  1.000000  1
  Fe  Fe27  1  0.616296  0.616296  0.616296  1
  Fe  Fe28  1  0.147215  0.287581  0.434796  1
  Fe  Fe29  1  0.287581  0.852785  0.140365  1
  Fe  Fe30  1  0.712419  0.147215  0.859635  1
  Fe  Fe31  1  0.859635  0.712419  0.147215  1
  Fe  Fe32  1  0.434796  0.287581  0.147215  1
  Fe  Fe33  1  0.147215  0.434796  0.287581  1
  Fe  Fe34  1  0.852785  0.140365  0.287581  1
  Fe  Fe35  1  0.712419  0.565204  0.852785  1
  Fe  Fe36  1  0.859635  0.147215  0.712419  1
  Fe  Fe37  1  0.287581  0.140365  0.852785  1
  Fe  Fe38  1  0.565204  0.852785  0.712419  1
  Fe  Fe39  1  0.712419  0.859635  0.147215  1
  Fe  Fe40  1  0.140365  0.852785  0.287581  1
  Fe  Fe41  1  0.434796  0.147215  0.287581  1
  Fe  Fe42  1  0.287581  0.434796  0.147215  1
  Fe  Fe43  1  0.852785  0.712419  0.565204  1
  Fe  Fe44  1  0.712419  0.852785  0.565204  1
  Fe  Fe45  1  0.147215  0.712419  0.859635  1
  Fe  Fe46  1  0.565204  0.712419  0.852785  1
  Fe  Fe47  1  0.852785  0.287581  0.140365  1
  Fe  Fe48  1  0.852785  0.565204  0.712419  1
  Fe  Fe49  1  0.287581  0.147215  0.434796  1
  Fe  Fe50  1  0.140365  0.287581  0.852785  1
  Fe  Fe51  1  0.147215  0.859635  0.712419  1
  Fe  Fe52  1  0.428842  0.428842  0.664662  1
  Fe  Fe53  1  0.428842  0.764180  1.000000  1
  Fe  Fe54  1  0.764180  0.428842  0.000000  1
  Fe  Fe55  1  0.000000  0.764180  0.428842  1
  Fe  Fe56  1  0.664662  0.235820  0.235820  1
  Fe  Fe57  1  0.235820  0.664662  0.235820  1
  Fe  Fe58  1  0.764180  0.000000  0.428842  1
  Fe  Fe59  1  0.764180  0.335338  0.764180  1
  Fe  Fe60  1  1.000000  0.235820  0.571158  1
  Fe  Fe61  1  0.235820  1.000000  0.571158  1
  Fe  Fe62  1  0.335338  0.764180  0.764180  1
  Fe  Fe63  1  0.571158  0.000000  0.235820  1
  Fe  Fe64  1  0.000000  0.571158  0.235820  1
  Fe  Fe65  1  0.664662  0.428842  0.428842  1
  Fe  Fe66  1  0.428842  0.664662  0.428842  1
  Fe  Fe67  1  0.764180  0.764180  0.335338  1
  Fe  Fe68  1  0.571158  0.571158  0.335338  1
  Fe  Fe69  1  0.235820  0.571158  1.000000  1
  Fe  Fe70  1  0.335338  0.571158  0.571158  1
  Fe  Fe71  1  0.571158  0.235820  0.000000  1
  Fe  Fe72  1  0.571158  0.335338  0.571158  1
  Fe  Fe73  1  0.235820  0.235820  0.664662  1
  Fe  Fe74  1  1.000000  0.428842  0.764180  1
  Fe  Fe75  1  0.428842  1.000000  0.764180  1
  Y  Y76  1  0.000000  0.500000  0.500000  1
  Y  Y77  1  0.500000  0.000000  0.500000  1
  Y  Y78  1  0.500000  0.500000  0.000000  1
