# generated using pymatgen
data_Y3Ni13B2
_symmetry_space_group_name_H-M   'P 1'
_cell_length_a   4.93346535
_cell_length_b   4.93260688
_cell_length_c   10.85195772
_cell_angle_alpha   89.99992603
_cell_angle_beta   90.00014807
_cell_angle_gamma   120.00576115
_symmetry_Int_Tables_number   1
_chemical_formula_structural   Y3Ni13B2
_chemical_formula_sum   'Y3 Ni13 B2'
_cell_volume   228.68732572
_cell_formula_units_Z   1
loop_
 _symmetry_equiv_pos_site_id
 _symmetry_equiv_pos_as_xyz
  1  'x, y, z'
loop_
 _atom_site_type_symbol
 _atom_site_label
 _atom_site_symmetry_multiplicity
 _atom_site_fract_x
 _atom_site_fract_y
 _atom_site_fract_z
 _atom_site_occupancy
  Y  Y0  1  0.999998  1.000000  0.328302  1
  Y  Y1  1  0.000002  0.000000  0.671700  1
  Y  Y2  1  0.999999  1.000000  0.999996  1
  Ni  Ni3  1  0.499999  1.000000  0.133779  1
  Ni  Ni4  1  0.499999  0.500000  0.133784  1
  Ni  Ni5  1  0.999999  0.500000  0.133784  1
  Ni  Ni6  1  0.500000  1.000000  0.866211  1
  Ni  Ni7  1  0.500000  0.500000  0.866216  1
  Ni  Ni8  1  0.999999  0.500000  0.866216  1
  Ni  Ni9  1  0.333300  0.666694  0.318273  1
  Ni  Ni10  1  0.666605  0.333306  0.318273  1
  Ni  Ni11  1  0.666700  0.333306  0.681730  1
  Ni  Ni12  1  0.333394  0.666694  0.681730  1
  Ni  Ni13  1  0.500000  0.000000  0.500002  1
  Ni  Ni14  1  0.500000  0.500000  0.500002  1
  Ni  Ni15  1  -0.000000  0.500000  0.500002  1
  B  B16  1  0.333303  0.666699  -0.000000  1
  B  B17  1  0.666603  0.333301  -0.000000  1
