# generated using pymatgen
data_Y10W2O21
_symmetry_space_group_name_H-M   'P 1'
_cell_length_a   10.64376589
_cell_length_b   10.72304670
_cell_length_c   16.08661332
_cell_angle_alpha   90.00000000
_cell_angle_beta   90.00000000
_cell_angle_gamma   90.00000000
_symmetry_Int_Tables_number   1
_chemical_formula_structural   Y10W2O21
_chemical_formula_sum   'Y40 W8 O84'
_cell_volume   1836.02306914
_cell_formula_units_Z   4
loop_
 _symmetry_equiv_pos_site_id
 _symmetry_equiv_pos_as_xyz
  1  'x, y, z'
loop_
 _atom_site_type_symbol
 _atom_site_label
 _atom_site_symmetry_multiplicity
 _atom_site_fract_x
 _atom_site_fract_y
 _atom_site_fract_z
 _atom_site_occupancy
  Y  Y0  1  0.249809  0.344309  0.098852  1
  Y  Y1  1  0.478807  0.110501  0.089034  1
  Y  Y2  1  0.013674  0.140300  0.743165  1
  Y  Y3  1  0.511534  0.634922  0.419735  1
  Y  Y4  1  0.011534  0.865078  0.919735  1
  Y  Y5  1  0.748954  0.627535  0.271460  1
  Y  Y6  1  0.986326  0.859700  0.256835  1
  Y  Y7  1  0.978807  0.110501  0.410966  1
  Y  Y8  1  0.486326  0.640300  0.756835  1
  Y  Y9  1  0.488466  0.365078  0.580265  1
  Y  Y10  1  0.511534  0.865078  0.580265  1
  Y  Y11  1  0.251046  0.372465  0.728540  1
  Y  Y12  1  0.751046  0.372465  0.771460  1
  Y  Y13  1  0.251046  0.127535  0.271460  1
  Y  Y14  1  0.750191  0.844308  0.098852  1
  Y  Y15  1  0.978807  0.389499  0.589034  1
  Y  Y16  1  0.749809  0.155692  0.598852  1
  Y  Y17  1  0.750191  0.655692  0.901148  1
  Y  Y18  1  0.478807  0.389499  0.910966  1
  Y  Y19  1  0.248954  0.627535  0.228540  1
  Y  Y20  1  0.748954  0.872465  0.728540  1
  Y  Y21  1  0.521193  0.610501  0.089034  1
  Y  Y22  1  0.250191  0.844308  0.401148  1
  Y  Y23  1  0.249809  0.155692  0.901148  1
  Y  Y24  1  0.986326  0.640300  0.743165  1
  Y  Y25  1  0.513674  0.140300  0.756835  1
  Y  Y26  1  0.513674  0.359700  0.243165  1
  Y  Y27  1  0.749809  0.344309  0.401148  1
  Y  Y28  1  0.021193  0.610501  0.410966  1
  Y  Y29  1  0.751046  0.127535  0.228540  1
  Y  Y30  1  0.021193  0.889499  0.589034  1
  Y  Y31  1  0.250191  0.655692  0.598852  1
  Y  Y32  1  0.486326  0.859700  0.243165  1
  Y  Y33  1  0.013674  0.359700  0.256835  1
  Y  Y34  1  0.488466  0.134922  0.419735  1
  Y  Y35  1  0.988466  0.365078  0.919735  1
  Y  Y36  1  0.988466  0.134922  0.080265  1
  Y  Y37  1  0.521193  0.889499  0.910966  1
  Y  Y38  1  0.011534  0.634922  0.080265  1
  Y  Y39  1  0.248954  0.872465  0.771460  1
  W  W40  1  0.251812  0.876688  0.085505  1
  W  W41  1  0.751812  0.876688  0.414495  1
  W  W42  1  0.248188  0.123312  0.585505  1
  W  W43  1  0.748188  0.376688  0.085505  1
  W  W44  1  0.251812  0.623312  0.914495  1
  W  W45  1  0.751812  0.623312  0.585505  1
  W  W46  1  0.248188  0.376688  0.414495  1
  W  W47  1  0.748188  0.123312  0.914495  1
  O  O48  1  0.191032  0.750000  0.000000  1
  O  O49  1  0.892831  0.491255  0.329371  1
  O  O50  1  0.380290  0.783796  0.677615  1
  O  O51  1  0.308968  0.250000  0.500000  1
  O  O52  1  0.385255  0.506108  0.658539  1
  O  O53  1  0.129430  0.248149  0.632785  1
  O  O54  1  0.629933  0.786784  0.343300  1
  O  O55  1  0.880129  0.250000  0.500000  1
  O  O56  1  0.629933  0.713216  0.656700  1
  O  O57  1  0.121872  0.978207  0.041366  1
  O  O58  1  0.621872  0.978207  0.458634  1
  O  O59  1  0.870570  0.748149  0.632785  1
  O  O60  1  0.124198  0.054927  0.512298  1
  O  O61  1  0.119710  0.216204  0.177615  1
  O  O62  1  0.114745  0.006108  0.841461  1
  O  O63  1  0.619871  0.750000  0.000000  1
  O  O64  1  0.375802  0.554927  0.987702  1
  O  O65  1  0.878122  0.270124  0.678744  1
  O  O66  1  0.386967  0.750000  0.500000  1
  O  O67  1  0.375802  0.945073  0.012298  1
  O  O68  1  0.892831  0.008745  0.670629  1
  O  O69  1  0.691032  0.750000  0.500000  1
  O  O70  1  0.107169  0.508745  0.670629  1
  O  O71  1  0.119871  0.750000  0.500000  1
  O  O72  1  0.129933  0.713216  0.843300  1
  O  O73  1  0.129933  0.786784  0.156700  1
  O  O74  1  0.380290  0.716204  0.322385  1
  O  O75  1  0.621878  0.729876  0.178744  1
  O  O76  1  0.370067  0.213216  0.656700  1
  O  O77  1  0.378122  0.270124  0.821256  1
  O  O78  1  0.886967  0.750000  0.000000  1
  O  O79  1  0.811564  0.516060  0.670206  1
  O  O80  1  0.124198  0.445073  0.487702  1
  O  O81  1  0.378128  0.021793  0.541366  1
  O  O82  1  0.121878  0.770124  0.678744  1
  O  O83  1  0.621878  0.770124  0.821256  1
  O  O84  1  0.129430  0.251851  0.367215  1
  O  O85  1  0.121878  0.729876  0.321256  1
  O  O86  1  0.607169  0.991255  0.170629  1
  O  O87  1  0.114745  0.493892  0.158539  1
  O  O88  1  0.619710  0.283796  0.677615  1
  O  O89  1  0.370570  0.751851  0.132785  1
  O  O90  1  0.392831  0.008745  0.829371  1
  O  O91  1  0.688436  0.483940  0.170206  1
  O  O92  1  0.878128  0.478207  0.041366  1
  O  O93  1  0.392831  0.491255  0.170629  1
  O  O94  1  0.121872  0.521793  0.958634  1
  O  O95  1  0.614745  0.006108  0.658539  1
  O  O96  1  0.880290  0.783796  0.822385  1
  O  O97  1  0.878122  0.229876  0.321256  1
  O  O98  1  0.188436  0.483940  0.329794  1
  O  O99  1  0.878128  0.021793  0.958634  1
  O  O100  1  0.119710  0.283796  0.822385  1
  O  O101  1  0.311564  0.516060  0.829794  1
  O  O102  1  0.378128  0.478207  0.458634  1
  O  O103  1  0.311564  0.983940  0.170206  1
  O  O104  1  0.885255  0.506108  0.841461  1
  O  O105  1  0.370067  0.286784  0.343300  1
  O  O106  1  0.113033  0.250000  0.000000  1
  O  O107  1  0.870067  0.213216  0.843300  1
  O  O108  1  0.107169  0.991255  0.329371  1
  O  O109  1  0.624198  0.054927  0.987702  1
  O  O110  1  0.688436  0.016060  0.829794  1
  O  O111  1  0.370570  0.748149  0.867215  1
  O  O112  1  0.188436  0.016060  0.670206  1
  O  O113  1  0.811564  0.983940  0.329794  1
  O  O114  1  0.880290  0.716204  0.177615  1
  O  O115  1  0.613033  0.250000  0.500000  1
  O  O116  1  0.614745  0.493892  0.341461  1
  O  O117  1  0.378122  0.229876  0.178744  1
  O  O118  1  0.380129  0.250000  0.000000  1
  O  O119  1  0.629430  0.248149  0.867215  1
  O  O120  1  0.808968  0.250000  0.000000  1
  O  O121  1  0.870570  0.751851  0.367215  1
  O  O122  1  0.875802  0.554927  0.512298  1
  O  O123  1  0.629430  0.251851  0.132785  1
  O  O124  1  0.619710  0.216204  0.322385  1
  O  O125  1  0.607169  0.508745  0.829371  1
  O  O126  1  0.870067  0.286784  0.156700  1
  O  O127  1  0.885255  0.993892  0.158539  1
  O  O128  1  0.624198  0.445073  0.012298  1
  O  O129  1  0.385255  0.993892  0.341461  1
  O  O130  1  0.875802  0.945073  0.487702  1
  O  O131  1  0.621872  0.521793  0.541366  1
