# generated using pymatgen
data_Y3Ni2
_symmetry_space_group_name_H-M   'P 1'
_cell_length_a   7.07096343
_cell_length_b   7.07096343
_cell_length_c   36.69076648
_cell_angle_alpha   90.00000000
_cell_angle_beta   90.00000000
_cell_angle_gamma   90.00000000
_symmetry_Int_Tables_number   1
_chemical_formula_structural   Y3Ni2
_chemical_formula_sum   'Y48 Ni32'
_cell_volume   1834.48416213
_cell_formula_units_Z   16
loop_
 _symmetry_equiv_pos_site_id
 _symmetry_equiv_pos_as_xyz
  1  'x, y, z'
loop_
 _atom_site_type_symbol
 _atom_site_label
 _atom_site_symmetry_multiplicity
 _atom_site_fract_x
 _atom_site_fract_y
 _atom_site_fract_z
 _atom_site_occupancy
  Y  Y0  1  0.836323  0.988886  0.410686  1
  Y  Y1  1  0.939390  0.692004  0.764450  1
  Y  Y2  1  0.840244  0.664282  0.318613  1
  Y  Y3  1  0.818358  0.181642  0.750000  1
  Y  Y4  1  0.534748  0.465252  0.250000  1
  Y  Y5  1  0.708872  0.484863  0.407383  1
  Y  Y6  1  0.835718  0.340244  0.568613  1
  Y  Y7  1  0.681642  0.681642  0.500000  1
  Y  Y8  1  0.488886  0.663677  0.160686  1
  Y  Y9  1  0.659756  0.164282  0.931387  1
  Y  Y10  1  0.988886  0.836323  0.589314  1
  Y  Y11  1  0.306500  0.856904  0.825797  1
  Y  Y12  1  0.336323  0.511114  0.339314  1
  Y  Y13  1  0.664282  0.840244  0.681387  1
  Y  Y14  1  0.208872  0.015137  0.342617  1
  Y  Y15  1  0.692004  0.939390  0.235550  1
  Y  Y16  1  0.663677  0.488886  0.839314  1
  Y  Y17  1  0.143096  0.693500  0.674203  1
  Y  Y18  1  0.164282  0.659756  0.068613  1
  Y  Y19  1  0.465252  0.534748  0.750000  1
  Y  Y20  1  0.806500  0.643096  0.924203  1
  Y  Y21  1  0.515137  0.291128  0.092617  1
  Y  Y22  1  0.163677  0.011114  0.910686  1
  Y  Y23  1  0.807996  0.439390  0.014450  1
  Y  Y24  1  0.965252  0.965252  0.000000  1
  Y  Y25  1  0.015137  0.208872  0.657383  1
  Y  Y26  1  0.356904  0.193500  0.575797  1
  Y  Y27  1  0.159756  0.335718  0.818613  1
  Y  Y28  1  0.318358  0.318358  0.000000  1
  Y  Y29  1  0.060610  0.307996  0.264450  1
  Y  Y30  1  0.340244  0.835718  0.431387  1
  Y  Y31  1  0.181642  0.818358  0.250000  1
  Y  Y32  1  0.034748  0.034748  0.500000  1
  Y  Y33  1  0.307996  0.060610  0.735550  1
  Y  Y34  1  0.693500  0.143096  0.325797  1
  Y  Y35  1  0.335718  0.159756  0.181387  1
  Y  Y36  1  0.439390  0.807996  0.985550  1
  Y  Y37  1  0.484863  0.708872  0.592617  1
  Y  Y38  1  0.560610  0.192004  0.485550  1
  Y  Y39  1  0.192004  0.560610  0.514450  1
  Y  Y40  1  0.643096  0.806500  0.075797  1
  Y  Y41  1  0.011114  0.163677  0.089314  1
  Y  Y42  1  0.511114  0.336323  0.660686  1
  Y  Y43  1  0.984863  0.791128  0.157383  1
  Y  Y44  1  0.291128  0.515137  0.907383  1
  Y  Y45  1  0.791128  0.984863  0.842617  1
  Y  Y46  1  0.193500  0.356904  0.424203  1
  Y  Y47  1  0.856904  0.306500  0.174203  1
  Ni  Ni48  1  0.011734  0.653534  0.855882  1
  Ni  Ni49  1  0.102897  0.625808  0.976318  1
  Ni  Ni50  1  0.125808  0.397103  0.726318  1
  Ni  Ni51  1  0.153534  0.488266  0.605882  1
  Ni  Ni52  1  0.511384  0.190838  0.798661  1
  Ni  Ni53  1  0.988616  0.690838  0.451339  1
  Ni  Ni54  1  0.488266  0.153534  0.394118  1
  Ni  Ni55  1  0.011384  0.309162  0.951339  1
  Ni  Ni56  1  0.625808  0.102897  0.023682  1
  Ni  Ni57  1  0.511734  0.846466  0.894118  1
  Ni  Ni58  1  0.988266  0.346466  0.355882  1
  Ni  Ni59  1  0.190838  0.511384  0.201339  1
  Ni  Ni60  1  0.809162  0.488616  0.701339  1
  Ni  Ni61  1  0.653534  0.011734  0.144118  1
  Ni  Ni62  1  0.945186  0.319149  0.883993  1
  Ni  Ni63  1  0.397103  0.125808  0.273682  1
  Ni  Ni64  1  0.488616  0.809162  0.298661  1
  Ni  Ni65  1  0.054814  0.680851  0.383993  1
  Ni  Ni66  1  0.897103  0.374192  0.476318  1
  Ni  Ni67  1  0.690838  0.988616  0.548661  1
  Ni  Ni68  1  0.602897  0.874192  0.773682  1
  Ni  Ni69  1  0.346466  0.988266  0.644118  1
  Ni  Ni70  1  0.819149  0.554814  0.633993  1
  Ni  Ni71  1  0.319149  0.945186  0.116007  1
  Ni  Ni72  1  0.680851  0.054814  0.616007  1
  Ni  Ni73  1  0.374192  0.897103  0.523682  1
  Ni  Ni74  1  0.554814  0.819149  0.366007  1
  Ni  Ni75  1  0.180851  0.445186  0.133993  1
  Ni  Ni76  1  0.309162  0.011384  0.048661  1
  Ni  Ni77  1  0.445186  0.180851  0.866007  1
  Ni  Ni78  1  0.874192  0.602897  0.226318  1
  Ni  Ni79  1  0.846466  0.511734  0.105882  1
