# generated using pymatgen
data_Y2B5Pd14
_symmetry_space_group_name_H-M   'P 1'
_cell_length_a   8.30318609
_cell_length_b   8.30318608
_cell_length_c   10.41905098
_cell_angle_alpha   113.48204873
_cell_angle_beta   113.48204874
_cell_angle_gamma   89.99999998
_symmetry_Int_Tables_number   1
_chemical_formula_structural   Y2B5Pd14
_chemical_formula_sum   'Y4 B10 Pd28'
_cell_volume   593.41045568
_cell_formula_units_Z   2
loop_
 _symmetry_equiv_pos_site_id
 _symmetry_equiv_pos_as_xyz
  1  'x, y, z'
loop_
 _atom_site_type_symbol
 _atom_site_label
 _atom_site_symmetry_multiplicity
 _atom_site_fract_x
 _atom_site_fract_y
 _atom_site_fract_z
 _atom_site_occupancy
  B  B0  1  0.625000  0.375000  0.250000  1
  B  B1  1  0.375000  0.625000  0.750000  1
  B  B2  1  0.210805  0.500000  0.000000  1
  B  B3  1  0.000000  0.210805  0.500000  1
  B  B4  1  0.500000  0.789195  0.500000  1
  B  B5  1  0.789195  0.000000  0.000000  1
  B  B6  1  0.789195  0.500000  0.000000  1
  B  B7  1  0.000000  0.789195  0.500000  1
  B  B8  1  0.500000  0.210805  0.500000  1
  B  B9  1  0.210805  0.000000  0.000000  1
  Y  Y10  1  0.658943  0.908943  0.317886  1
  Y  Y11  1  0.908943  0.658943  0.817886  1
  Y  Y12  1  0.341057  0.091057  0.682114  1
  Y  Y13  1  0.091057  0.341057  0.182114  1
  Pd  Pd14  1  0.351277  0.932570  0.365140  1
  Pd  Pd15  1  0.067430  0.986137  0.134860  1
  Pd  Pd16  1  0.187788  0.437789  0.750000  1
  Pd  Pd17  1  0.812211  0.187788  0.250000  1
  Pd  Pd18  1  0.437789  0.562211  0.250000  1
  Pd  Pd19  1  0.562211  0.812211  0.750000  1
  Pd  Pd20  1  0.812211  0.562211  0.250000  1
  Pd  Pd21  1  0.187788  0.812211  0.750000  1
  Pd  Pd22  1  0.562211  0.437789  0.750000  1
  Pd  Pd23  1  0.437789  0.187788  0.250000  1
  Pd  Pd24  1  0.500000  0.500000  0.000000  1
  Pd  Pd25  1  0.000000  0.500000  0.500000  1
  Pd  Pd26  1  0.500000  0.500000  0.500000  1
  Pd  Pd27  1  0.500000  0.000000  0.000000  1
  Pd  Pd28  1  0.013863  0.932570  0.365140  1
  Pd  Pd29  1  0.932570  0.013863  0.865140  1
  Pd  Pd30  1  0.932570  0.351277  0.865140  1
  Pd  Pd31  1  0.648723  0.067430  0.634860  1
  Pd  Pd32  1  0.986137  0.067430  0.634860  1
  Pd  Pd33  1  0.067430  0.648723  0.134860  1
  Pd  Pd34  1  0.230689  0.694512  0.461378  1
  Pd  Pd35  1  0.733134  0.769311  0.038622  1
  Pd  Pd36  1  0.305488  0.769311  0.038622  1
  Pd  Pd37  1  0.769311  0.305488  0.538622  1
  Pd  Pd38  1  0.769311  0.733134  0.538622  1
  Pd  Pd39  1  0.266866  0.230689  0.961378  1
  Pd  Pd40  1  0.694512  0.230689  0.961378  1
  Pd  Pd41  1  0.230689  0.266866  0.461378  1
