# generated using pymatgen
data_Y(BRu)4
_symmetry_space_group_name_H-M   'P 1'
_cell_length_a   7.49765576
_cell_length_b   7.49765575
_cell_length_c   9.20973778
_cell_angle_alpha   114.01968265
_cell_angle_beta   114.01968266
_cell_angle_gamma   89.99999997
_symmetry_Int_Tables_number   1
_chemical_formula_structural   Y(BRu)4
_chemical_formula_sum   'Y4 B16 Ru16'
_cell_volume   423.33862661
_cell_formula_units_Z   4
loop_
 _symmetry_equiv_pos_site_id
 _symmetry_equiv_pos_as_xyz
  1  'x, y, z'
loop_
 _atom_site_type_symbol
 _atom_site_label
 _atom_site_symmetry_multiplicity
 _atom_site_fract_x
 _atom_site_fract_y
 _atom_site_fract_z
 _atom_site_occupancy
  B  B0  1  0.875336  0.652941  0.086961  1
  B  B1  1  0.565980  0.288375  0.413039  1
  B  B2  1  0.847059  0.624664  0.413039  1
  B  B3  1  0.288375  0.847059  0.913039  1
  B  B4  1  0.624664  0.565980  0.913039  1
  B  B5  1  0.934020  0.875336  0.586961  1
  B  B6  1  0.652941  0.211625  0.586961  1
  B  B7  1  0.211625  0.934020  0.086961  1
  B  B8  1  0.124664  0.347059  0.913039  1
  B  B9  1  0.434020  0.711625  0.586961  1
  B  B10  1  0.152941  0.375336  0.586961  1
  B  B11  1  0.711625  0.152941  0.086961  1
  B  B12  1  0.375336  0.434020  0.086961  1
  B  B13  1  0.065980  0.124664  0.413039  1
  B  B14  1  0.347059  0.788375  0.413039  1
  B  B15  1  0.788375  0.065980  0.913039  1
  Y  Y16  1  0.125000  0.375000  0.250000  1
  Y  Y17  1  0.375000  0.125000  0.750000  1
  Y  Y18  1  0.875000  0.625000  0.750000  1
  Y  Y19  1  0.625000  0.875000  0.250000  1
  Ru  Ru20  1  0.678705  0.461212  0.126405  1
  Ru  Ru21  1  0.334807  0.052300  0.373595  1
  Ru  Ru22  1  0.038788  0.821295  0.373595  1
  Ru  Ru23  1  0.052300  0.038788  0.873595  1
  Ru  Ru24  1  0.821295  0.334807  0.873595  1
  Ru  Ru25  1  0.165193  0.678705  0.626405  1
  Ru  Ru26  1  0.461212  0.447700  0.626405  1
  Ru  Ru27  1  0.447700  0.165193  0.126405  1
  Ru  Ru28  1  0.321295  0.538788  0.873595  1
  Ru  Ru29  1  0.665193  0.947700  0.626405  1
  Ru  Ru30  1  0.961212  0.178705  0.626405  1
  Ru  Ru31  1  0.947700  0.961212  0.126405  1
  Ru  Ru32  1  0.178705  0.665193  0.126405  1
  Ru  Ru33  1  0.834807  0.321295  0.373595  1
  Ru  Ru34  1  0.538788  0.552300  0.373595  1
  Ru  Ru35  1  0.552300  0.834807  0.873595  1
