# generated using pymatgen
data_YB7Mo3
_symmetry_space_group_name_H-M   'P 1'
_cell_length_a   3.11148243
_cell_length_b   11.02713937
_cell_length_c   12.92263107
_cell_angle_alpha   90.00000000
_cell_angle_beta   90.00000000
_cell_angle_gamma   90.00000000
_symmetry_Int_Tables_number   1
_chemical_formula_structural   YB7Mo3
_chemical_formula_sum   'Y4 B28 Mo12'
_cell_volume   443.38516919
_cell_formula_units_Z   4
loop_
 _symmetry_equiv_pos_site_id
 _symmetry_equiv_pos_as_xyz
  1  'x, y, z'
loop_
 _atom_site_type_symbol
 _atom_site_label
 _atom_site_symmetry_multiplicity
 _atom_site_fract_x
 _atom_site_fract_y
 _atom_site_fract_z
 _atom_site_occupancy
  Y  Y0  1  0.250000  0.051094  0.691817  1
  Y  Y1  1  0.250000  0.551094  0.808183  1
  Y  Y2  1  0.750000  0.448906  0.191817  1
  Y  Y3  1  0.750000  0.948906  0.308183  1
  B  B4  1  0.750000  0.230263  0.081843  1
  B  B5  1  0.250000  0.932123  0.884025  1
  B  B6  1  0.250000  0.489516  0.362662  1
  B  B7  1  0.250000  0.989516  0.137338  1
  B  B8  1  0.250000  0.769737  0.918157  1
  B  B9  1  0.250000  0.432123  0.615975  1
  B  B10  1  0.250000  0.462652  0.017973  1
  B  B11  1  0.750000  0.037348  0.517973  1
  B  B12  1  0.750000  0.249396  0.326517  1
  B  B13  1  0.250000  0.962652  0.482027  1
  B  B14  1  0.750000  0.166208  0.832993  1
  B  B15  1  0.250000  0.333792  0.332993  1
  B  B16  1  0.250000  0.312943  0.066513  1
  B  B17  1  0.750000  0.749396  0.173483  1
  B  B18  1  0.750000  0.187057  0.566513  1
  B  B19  1  0.750000  0.687057  0.933487  1
  B  B20  1  0.250000  0.812943  0.433487  1
  B  B21  1  0.750000  0.067877  0.115975  1
  B  B22  1  0.750000  0.537348  0.982027  1
  B  B23  1  0.250000  0.750604  0.673483  1
  B  B24  1  0.750000  0.010484  0.862662  1
  B  B25  1  0.750000  0.730263  0.418157  1
  B  B26  1  0.750000  0.510484  0.637338  1
  B  B27  1  0.250000  0.269737  0.581843  1
  B  B28  1  0.250000  0.250604  0.826517  1
  B  B29  1  0.750000  0.666208  0.667007  1
  B  B30  1  0.750000  0.567877  0.384025  1
  B  B31  1  0.250000  0.833792  0.167007  1
  Mo  Mo32  1  0.750000  0.315205  0.701645  1
  Mo  Mo33  1  0.750000  0.382226  0.473100  1
  Mo  Mo34  1  0.750000  0.340330  0.936213  1
  Mo  Mo35  1  0.250000  0.617774  0.526900  1
  Mo  Mo36  1  0.250000  0.159670  0.436213  1
  Mo  Mo37  1  0.250000  0.684795  0.298355  1
  Mo  Mo38  1  0.750000  0.840330  0.563787  1
  Mo  Mo39  1  0.750000  0.815205  0.798355  1
  Mo  Mo40  1  0.250000  0.184795  0.201645  1
  Mo  Mo41  1  0.750000  0.882226  0.026900  1
  Mo  Mo42  1  0.250000  0.659670  0.063787  1
  Mo  Mo43  1  0.250000  0.117774  0.973100  1
