# generated using pymatgen
data_YCrB4
_symmetry_space_group_name_H-M   'P 1'
_cell_length_a   3.45005178
_cell_length_b   5.93353485
_cell_length_c   11.46220429
_cell_angle_alpha   90.00000000
_cell_angle_beta   90.00000000
_cell_angle_gamma   90.00000000
_symmetry_Int_Tables_number   1
_chemical_formula_structural   YCrB4
_chemical_formula_sum   'Y4 Cr4 B16'
_cell_volume   234.64281234
_cell_formula_units_Z   4
loop_
 _symmetry_equiv_pos_site_id
 _symmetry_equiv_pos_as_xyz
  1  'x, y, z'
loop_
 _atom_site_type_symbol
 _atom_site_label
 _atom_site_symmetry_multiplicity
 _atom_site_fract_x
 _atom_site_fract_y
 _atom_site_fract_z
 _atom_site_occupancy
  B  B0  1  0.500000  0.024603  0.691581  1
  B  B1  1  0.500000  0.975397  0.308418  1
  B  B2  1  0.500000  0.524603  0.808419  1
  B  B3  1  0.500000  0.475397  0.191581  1
  B  B4  1  0.500000  0.112950  0.546719  1
  B  B5  1  0.500000  0.887050  0.453281  1
  B  B6  1  0.500000  0.612950  0.953281  1
  B  B7  1  0.500000  0.387050  0.046719  1
  B  B8  1  0.500000  0.280454  0.316129  1
  B  B9  1  0.500000  0.719546  0.683871  1
  B  B10  1  0.500000  0.780454  0.183871  1
  B  B11  1  0.500000  0.219546  0.816129  1
  B  B12  1  0.500000  0.362671  0.467469  1
  B  B13  1  0.500000  0.637329  0.532531  1
  B  B14  1  0.500000  0.862671  0.032531  1
  B  B15  1  0.500000  0.137329  0.967469  1
  Cr  Cr16  1  0.000000  0.378032  0.920727  1
  Cr  Cr17  1  0.000000  0.621968  0.079273  1
  Cr  Cr18  1  0.000000  0.878032  0.579273  1
  Cr  Cr19  1  0.000000  0.121968  0.420727  1
  Y  Y20  1  0.000000  0.375434  0.650650  1
  Y  Y21  1  0.000000  0.624566  0.349350  1
  Y  Y22  1  0.000000  0.875434  0.849350  1
  Y  Y23  1  0.000000  0.124566  0.150650  1
