# generated using pymatgen
data_Y4Cu2O7
_symmetry_space_group_name_H-M   'P 1'
_cell_length_a   8.34083352
_cell_length_b   6.38584012
_cell_length_c   6.38584012
_cell_angle_alpha   33.48797748
_cell_angle_beta   108.62300829
_cell_angle_gamma   108.62300829
_symmetry_Int_Tables_number   1
_chemical_formula_structural   Y4Cu2O7
_chemical_formula_sum   'Y4 Cu2 O7'
_cell_volume   176.92831991
_cell_formula_units_Z   1
loop_
 _symmetry_equiv_pos_site_id
 _symmetry_equiv_pos_as_xyz
  1  'x, y, z'
loop_
 _atom_site_type_symbol
 _atom_site_label
 _atom_site_symmetry_multiplicity
 _atom_site_fract_x
 _atom_site_fract_y
 _atom_site_fract_z
 _atom_site_occupancy
  Y  Y0  1  0.163182  0.355861  0.355861  1
  Y  Y1  1  0.321033  0.662525  0.662525  1
  Y  Y2  1  0.678967  0.337475  0.337475  1
  Y  Y3  1  0.836818  0.644139  0.644139  1
  Cu  Cu4  1  0.000000  0.000000  0.000000  1
  Cu  Cu5  1  0.500000  0.000000  0.000000  1
  O  O6  1  0.120406  0.748385  0.748385  1
  O  O7  1  0.000000  0.500000  0.500000  1
  O  O8  1  0.712456  0.988540  0.988540  1
  O  O9  1  0.385987  0.277414  0.277414  1
  O  O10  1  0.614013  0.722586  0.722586  1
  O  O11  1  0.287544  0.011460  0.011460  1
  O  O12  1  0.879594  0.251615  0.251615  1
