# generated using pymatgen
data_Cr2NiO4
_symmetry_space_group_name_H-M   'P 1'
_cell_length_a   5.90755085
_cell_length_b   5.90755085
_cell_length_c   6.04329124
_cell_angle_alpha   119.25973060
_cell_angle_beta   119.25973060
_cell_angle_gamma   90.00000000
_symmetry_Int_Tables_number   1
_chemical_formula_structural   Cr2NiO4
_chemical_formula_sum   'Cr4 Ni2 O8'
_cell_volume   152.40899761
_cell_formula_units_Z   2
loop_
 _symmetry_equiv_pos_site_id
 _symmetry_equiv_pos_as_xyz
  1  'x, y, z'
loop_
 _atom_site_type_symbol
 _atom_site_label
 _atom_site_symmetry_multiplicity
 _atom_site_fract_x
 _atom_site_fract_y
 _atom_site_fract_z
 _atom_site_occupancy
  Cr  Cr0  1  0.500000  0.500000  0.500000  1
  Cr  Cr1  1  0.000000  0.500000  0.000000  1
  Cr  Cr2  1  0.000000  0.000000  0.000000  1
  Cr  Cr3  1  0.000000  0.500000  0.500000  1
  Ni  Ni4  1  0.625000  0.875000  0.250000  1
  Ni  Ni5  1  0.375000  0.125000  0.750000  1
  O  O6  1  0.217255  0.732614  0.965229  1
  O  O7  1  0.232614  0.247974  0.465229  1
  O  O8  1  0.232614  0.717255  0.465229  1
  O  O9  1  0.747974  0.732614  0.965229  1
  O  O10  1  0.782745  0.267386  0.034771  1
  O  O11  1  0.767386  0.752026  0.534771  1
  O  O12  1  0.767386  0.282745  0.534771  1
  O  O13  1  0.252026  0.267386  0.034771  1
