# generated using pymatgen
data_YFeO3
_symmetry_space_group_name_H-M   'P 1'
_cell_length_a   5.33997720
_cell_length_b   5.66418142
_cell_length_c   7.72581595
_cell_angle_alpha   90.00420531
_cell_angle_beta   89.98709573
_cell_angle_gamma   89.99875159
_symmetry_Int_Tables_number   1
_chemical_formula_structural   YFeO3
_chemical_formula_sum   'Y4 Fe4 O12'
_cell_volume   233.67965580
_cell_formula_units_Z   4
loop_
 _symmetry_equiv_pos_site_id
 _symmetry_equiv_pos_as_xyz
  1  'x, y, z'
loop_
 _atom_site_type_symbol
 _atom_site_label
 _atom_site_symmetry_multiplicity
 _atom_site_fract_x
 _atom_site_fract_y
 _atom_site_fract_z
 _atom_site_occupancy
  Y  Y0  1  0.018760  0.931115  0.750015  1
  Y  Y1  1  0.518775  0.568839  0.249956  1
  Y  Y2  1  0.481220  0.431173  0.750043  1
  Y  Y3  1  0.981249  0.068863  0.249982  1
  Fe  Fe4  1  -0.000003  0.499986  0.499975  1
  Fe  Fe5  1  0.499997  -0.000004  0.500012  1
  Fe  Fe6  1  0.500003  0.000017  0.000011  1
  Fe  Fe7  1  0.999976  0.500021  0.000025  1
  O  O8  1  0.691114  0.306250  0.440831  1
  O  O9  1  0.191128  0.193734  0.559166  1
  O  O10  1  0.808946  0.806352  0.059077  1
  O  O11  1  0.308960  0.693675  0.940906  1
  O  O12  1  0.308889  0.693747  0.559159  1
  O  O13  1  0.808878  0.806267  0.440822  1
  O  O14  1  0.191058  0.193650  0.940928  1
  O  O15  1  0.691042  0.306322  0.059098  1
  O  O16  1  0.114854  0.457481  0.250019  1
  O  O17  1  0.614836  0.042493  0.750026  1
  O  O18  1  0.385169  0.957507  0.249973  1
  O  O19  1  0.885151  0.542512  0.749977  1
