# generated using pymatgen
data_Y2HgO4
_symmetry_space_group_name_H-M   'P 1'
_cell_length_a   6.87215115
_cell_length_b   6.87204472
_cell_length_c   6.87215115
_cell_angle_alpha   119.99894229
_cell_angle_beta   89.99727714
_cell_angle_gamma   60.00106179
_symmetry_Int_Tables_number   1
_chemical_formula_structural   Y2HgO4
_chemical_formula_sum   'Y4 Hg2 O8'
_cell_volume   229.48799826
_cell_formula_units_Z   2
loop_
 _symmetry_equiv_pos_site_id
 _symmetry_equiv_pos_as_xyz
  1  'x, y, z'
loop_
 _atom_site_type_symbol
 _atom_site_label
 _atom_site_symmetry_multiplicity
 _atom_site_fract_x
 _atom_site_fract_y
 _atom_site_fract_z
 _atom_site_occupancy
  Y  Y0  1  0.000000  0.000000  0.000000  1
  Y  Y1  1  0.500000  0.000000  0.000000  1
  Y  Y2  1  0.000000  0.500000  0.000000  1
  Y  Y3  1  0.000000  0.500000  0.500000  1
  Hg  Hg4  1  0.625000  0.250000  0.625000  1
  Hg  Hg5  1  0.375000  0.750000  0.375000  1
  O  O6  1  0.235181  0.029626  0.235188  1
  O  O7  1  0.235193  0.029624  0.794437  1
  O  O8  1  0.235187  0.470376  0.235182  1
  O  O9  1  0.794438  0.470374  0.235193  1
  O  O10  1  0.764813  0.529624  0.764818  1
  O  O11  1  0.205562  0.529626  0.764807  1
  O  O12  1  0.764819  0.970374  0.764812  1
  O  O13  1  0.764807  0.970376  0.205563  1
