# generated using pymatgen
data_YScO3
_symmetry_space_group_name_H-M   'P 1'
_cell_length_a   5.76217965
_cell_length_b   5.46844831
_cell_length_c   7.99589918
_cell_angle_alpha   90.00000000
_cell_angle_beta   90.00000000
_cell_angle_gamma   90.00000000
_symmetry_Int_Tables_number   1
_chemical_formula_structural   YScO3
_chemical_formula_sum   'Y4 Sc4 O12'
_cell_volume   251.95223497
_cell_formula_units_Z   4
loop_
 _symmetry_equiv_pos_site_id
 _symmetry_equiv_pos_as_xyz
  1  'x, y, z'
loop_
 _atom_site_type_symbol
 _atom_site_label
 _atom_site_symmetry_multiplicity
 _atom_site_fract_x
 _atom_site_fract_y
 _atom_site_fract_z
 _atom_site_occupancy
  Y  Y0  1  0.062576  0.019652  0.009940  1
  Y  Y1  1  0.437424  0.519652  0.509940  1
  Y  Y2  1  0.562576  0.480348  0.009940  1
  Y  Y3  1  0.937424  0.980348  0.509940  1
  Sc  Sc4  1  0.000559  0.500057  0.759326  1
  Sc  Sc5  1  0.499441  0.000057  0.259326  1
  Sc  Sc6  1  0.500559  -0.000057  0.759326  1
  Sc  Sc7  1  0.999441  0.499943  0.259326  1
  O  O8  1  0.056221  0.371050  0.509041  1
  O  O9  1  0.191850  0.809915  0.325972  1
  O  O10  1  0.195546  0.808096  0.690721  1
  O  O11  1  0.304454  0.308096  0.190721  1
  O  O12  1  0.308150  0.309915  0.825972  1
  O  O13  1  0.443779  0.871050  0.009041  1
  O  O14  1  0.556221  0.128950  0.509041  1
  O  O15  1  0.691850  0.690085  0.325972  1
  O  O16  1  0.695546  0.691904  0.690721  1
  O  O17  1  0.804454  0.191904  0.190721  1
  O  O18  1  0.808150  0.190085  0.825972  1
  O  O19  1  0.943779  0.628950  0.009041  1
