# generated using pymatgen
data_Y2W2O9
_symmetry_space_group_name_H-M   'P 1'
_cell_length_a   7.46522674
_cell_length_b   7.12889850
_cell_length_c   6.73511336
_cell_angle_alpha   97.38528057
_cell_angle_beta   95.65034494
_cell_angle_gamma   70.76019681
_symmetry_Int_Tables_number   1
_chemical_formula_structural   Y2W2O9
_chemical_formula_sum   'Y4 W4 O18'
_cell_volume   335.00515496
_cell_formula_units_Z   2
loop_
 _symmetry_equiv_pos_site_id
 _symmetry_equiv_pos_as_xyz
  1  'x, y, z'
loop_
 _atom_site_type_symbol
 _atom_site_label
 _atom_site_symmetry_multiplicity
 _atom_site_fract_x
 _atom_site_fract_y
 _atom_site_fract_z
 _atom_site_occupancy
  Y  Y0  1  0.153539  0.260385  0.846753  1
  Y  Y1  1  0.374988  0.286910  0.384540  1
  Y  Y2  1  0.625012  0.713090  0.615460  1
  Y  Y3  1  0.846461  0.739615  0.153247  1
  W  W4  1  0.054299  0.736199  0.732519  1
  W  W5  1  0.368246  0.792926  0.159238  1
  W  W6  1  0.631754  0.207074  0.840762  1
  W  W7  1  0.945701  0.263801  0.267481  1
  O  O8  1  0.093351  0.235516  0.503939  1
  O  O9  1  0.217229  0.069827  0.147857  1
  O  O10  1  0.091155  0.429553  0.182103  1
  O  O11  1  0.247357  0.502968  0.671191  1
  O  O12  1  0.140347  0.738850  0.038764  1
  O  O13  1  0.157107  0.937139  0.739361  1
  O  O14  1  0.456940  0.088211  0.685393  1
  O  O15  1  0.381464  0.641773  0.366867  1
  O  O16  1  0.467442  0.304669  0.043069  1
  O  O17  1  0.532558  0.695331  0.956931  1
  O  O18  1  0.618536  0.358227  0.633133  1
  O  O19  1  0.543060  0.911789  0.314607  1
  O  O20  1  0.842893  0.062861  0.260639  1
  O  O21  1  0.859653  0.261150  0.961236  1
  O  O22  1  0.752643  0.497032  0.328809  1
  O  O23  1  0.908845  0.570447  0.817897  1
  O  O24  1  0.782771  0.930173  0.852143  1
  O  O25  1  0.906649  0.764484  0.496061  1
