# generated using pymatgen
data_Y2Zr9O22
_symmetry_space_group_name_H-M   'P 1'
_cell_length_a   3.68130160
_cell_length_b   40.42691009
_cell_length_c   6.39041528
_cell_angle_alpha   54.91861015
_cell_angle_beta   90.00000000
_cell_angle_gamma   90.00000000
_symmetry_Int_Tables_number   1
_chemical_formula_structural   Y2Zr9O22
_chemical_formula_sum   'Y4 Zr18 O44'
_cell_volume   778.27471474
_cell_formula_units_Z   2
loop_
 _symmetry_equiv_pos_site_id
 _symmetry_equiv_pos_as_xyz
  1  'x, y, z'
loop_
 _atom_site_type_symbol
 _atom_site_label
 _atom_site_symmetry_multiplicity
 _atom_site_fract_x
 _atom_site_fract_y
 _atom_site_fract_z
 _atom_site_occupancy
  Y  Y0  1  0.500000  0.272490  0.496545  1
  Y  Y1  1  0.500000  0.545292  0.495381  1
  Y  Y2  1  0.500000  0.727356  0.499154  1
  Y  Y3  1  0.500000  0.909577  0.502552  1
  Zr  Zr4  1  0.000000  0.000176  0.001724  1
  Zr  Zr5  1  0.000000  0.091150  0.000186  1
  Zr  Zr6  1  0.000000  0.182044  0.999059  1
  Zr  Zr7  1  0.000000  0.363186  0.000190  1
  Zr  Zr8  1  0.000000  0.454893  0.999301  1
  Zr  Zr9  1  0.000000  0.726950  0.001058  1
  Zr  Zr10  1  0.000000  0.818716  0.001153  1
  Zr  Zr11  1  0.000000  0.909025  0.003517  1
  Zr  Zr12  1  0.500000  0.091127  0.501513  1
  Zr  Zr13  1  0.500000  0.181246  0.500684  1
  Zr  Zr14  1  0.500000  0.364021  0.497140  1
  Zr  Zr15  1  0.500000  0.453675  0.503575  1
  Zr  Zr16  1  0.500000  0.635897  0.500761  1
  Zr  Zr17  1  0.500000  0.818276  0.502346  1
  Zr  Zr18  1  0.500000  0.001093  0.499317  1
  Zr  Zr19  1  0.000000  0.271783  0.998433  1
  Zr  Zr20  1  0.000000  0.544562  0.998525  1
  Zr  Zr21  1  0.000000  0.636391  0.999036  1
  O  O22  1  0.000000  0.026720  0.220349  1
  O  O23  1  0.000000  0.204305  0.237457  1
  O  O24  1  0.000000  0.298428  0.210779  1
  O  O25  1  0.000000  0.389159  0.224548  1
  O  O26  1  0.000000  0.476764  0.241777  1
  O  O27  1  0.000000  0.570660  0.214612  1
  O  O28  1  0.000000  0.659243  0.245494  1
  O  O29  1  0.000000  0.615228  0.728344  1
  O  O30  1  0.000000  0.841779  0.248990  1
  O  O31  1  0.000000  0.797210  0.734056  1
  O  O32  1  0.500000  0.021619  0.777869  1
  O  O33  1  0.500000  0.066783  0.277552  1
  O  O34  1  0.500000  0.109559  0.781979  1
  O  O35  1  0.500000  0.198545  0.779573  1
  O  O36  1  0.500000  0.156322  0.276447  1
  O  O37  1  0.500000  0.245402  0.260878  1
  O  O38  1  0.500000  0.296509  0.772562  1
  O  O39  1  0.500000  0.342146  0.260566  1
  O  O40  1  0.500000  0.383792  0.771953  1
  O  O41  1  0.500000  0.471684  0.776287  1
  O  O42  1  0.500000  0.430189  0.269749  1
  O  O43  1  0.500000  0.518404  0.258279  1
  O  O44  1  0.500000  0.568212  0.769414  1
  O  O45  1  0.500000  0.655055  0.766609  1
  O  O46  1  0.500000  0.615270  0.252882  1
  O  O47  1  0.500000  0.701783  0.252983  1
  O  O48  1  0.500000  0.750889  0.767202  1
  O  O49  1  0.500000  0.837576  0.767237  1
  O  O50  1  0.500000  0.797877  0.252949  1
  O  O51  1  0.500000  0.884314  0.254784  1
  O  O52  1  0.500000  0.934124  0.772179  1
  O  O53  1  0.500000  0.979256  0.264882  1
  O  O54  1  0.000000  0.116144  0.222561  1
  O  O55  1  0.000000  0.071478  0.717815  1
  O  O56  1  0.000000  0.159518  0.725441  1
  O  O57  1  0.000000  0.249158  0.755441  1
  O  O58  1  0.000000  0.345346  0.715925  1
  O  O59  1  0.000000  0.432164  0.729652  1
  O  O60  1  0.000000  0.521377  0.757195  1
  O  O61  1  0.000000  0.752838  0.220632  1
  O  O62  1  0.000000  0.703256  0.763739  1
  O  O63  1  0.000000  0.935875  0.216737  1
  O  O64  1  0.000000  0.885998  0.765620  1
  O  O65  1  0.000000  0.983117  0.716870  1
