# generated using pymatgen
data_Dy11Y5O24
_symmetry_space_group_name_H-M   'P 1'
_cell_length_a   9.25722615
_cell_length_b   9.25718849
_cell_length_c   9.25669213
_cell_angle_alpha   109.47400247
_cell_angle_beta   109.45989598
_cell_angle_gamma   109.47827679
_symmetry_Int_Tables_number   1
_chemical_formula_structural   Dy11Y5O24
_chemical_formula_sum   'Dy11 Y5 O24'
_cell_volume   610.66336710
_cell_formula_units_Z   1
loop_
 _symmetry_equiv_pos_site_id
 _symmetry_equiv_pos_as_xyz
  1  'x, y, z'
loop_
 _atom_site_type_symbol
 _atom_site_label
 _atom_site_symmetry_multiplicity
 _atom_site_fract_x
 _atom_site_fract_y
 _atom_site_fract_z
 _atom_site_occupancy
  Dy  Dy0  1  0.967685  0.250134  0.217466  1
  Dy  Dy1  1  0.000262  0.500073  0.000046  1
  Dy  Dy2  1  0.499745  0.499795  0.499819  1
  Dy  Dy3  1  0.467019  0.249906  0.717071  1
  Dy  Dy4  1  0.000172  0.000046  0.500116  1
  Dy  Dy5  1  0.532448  0.749814  0.282590  1
  Dy  Dy6  1  0.249954  0.717317  0.467268  1
  Dy  Dy7  1  0.249956  0.217334  0.967249  1
  Dy  Dy8  1  0.217272  0.967283  0.250030  1
  Dy  Dy9  1  0.282586  0.532515  0.749884  1
  Dy  Dy10  1  0.032838  0.750052  0.782781  1
  Y  Y11  1  0.499816  0.999942  0.999860  1
  Y  Y12  1  0.717519  0.467534  0.250043  1
  Y  Y13  1  0.782627  0.032542  0.749932  1
  Y  Y14  1  0.750045  0.282719  0.532764  1
  Y  Y15  1  0.750043  0.782438  0.032512  1
  O  O16  1  0.760599  0.030742  0.488707  1
  O  O17  1  0.739874  0.228582  0.270541  1
  O  O18  1  0.271132  0.011014  0.042024  1
  O  O19  1  0.969386  0.510954  0.239363  1
  O  O20  1  0.468126  0.229345  0.457587  1
  O  O21  1  0.771770  0.729836  0.261313  1
  O  O22  1  0.042415  0.271902  0.011182  1
  O  O23  1  0.457631  0.468844  0.229507  1
  O  O24  1  0.729425  0.261323  0.772064  1
  O  O25  1  0.770530  0.542635  0.531940  1
  O  O26  1  0.011294  0.042342  0.271900  1
  O  O27  1  0.488672  0.760076  0.030990  1
  O  O28  1  0.989664  0.957838  0.728360  1
  O  O29  1  0.510368  0.239217  0.968222  1
  O  O30  1  0.229526  0.458024  0.468923  1
  O  O31  1  0.270527  0.739490  0.228544  1
  O  O32  1  0.541615  0.530704  0.769979  1
  O  O33  1  0.958350  0.728343  0.989124  1
  O  O34  1  0.530644  0.770046  0.541615  1
  O  O35  1  0.228344  0.270435  0.739310  1
  O  O36  1  0.728760  0.989478  0.958129  1
  O  O37  1  0.031850  0.489477  0.761260  1
  O  O38  1  0.239301  0.968818  0.510875  1
  O  O39  1  0.260207  0.771087  0.729108  1
