# generated using pymatgen
data_Y5(MoO6)2
_symmetry_space_group_name_H-M   'P 1'
_cell_length_a   5.78372041
_cell_length_b   6.84380384
_cell_length_c   7.59473660
_cell_angle_alpha   106.29298176
_cell_angle_beta   90.00000000
_cell_angle_gamma   114.99578522
_symmetry_Int_Tables_number   1
_chemical_formula_structural   Y5(MoO6)2
_chemical_formula_sum   'Y5 Mo2 O12'
_cell_volume   259.08164665
_cell_formula_units_Z   1
loop_
 _symmetry_equiv_pos_site_id
 _symmetry_equiv_pos_as_xyz
  1  'x, y, z'
loop_
 _atom_site_type_symbol
 _atom_site_label
 _atom_site_symmetry_multiplicity
 _atom_site_fract_x
 _atom_site_fract_y
 _atom_site_fract_z
 _atom_site_occupancy
  O  O0  1  0.999443  0.998886  0.817842  1
  O  O1  1  0.000557  0.001114  0.182158  1
  O  O2  1  0.498957  0.997914  0.205411  1
  O  O3  1  0.501043  0.002086  0.794589  1
  O  O4  1  0.597452  0.690512  0.425448  1
  O  O5  1  0.906940  0.309488  0.574552  1
  O  O6  1  0.402548  0.309488  0.574552  1
  O  O7  1  0.409375  0.328970  0.083839  1
  O  O8  1  0.080405  0.671030  0.916161  1
  O  O9  1  0.590625  0.671030  0.916161  1
  O  O10  1  0.919595  0.328970  0.083839  1
  O  O11  1  0.093060  0.690512  0.425448  1
  Y  Y12  1  0.500000  0.000000  0.500000  1
  Y  Y13  1  0.185348  0.370695  0.821217  1
  Y  Y14  1  0.814652  0.629305  0.178783  1
  Y  Y15  1  0.804855  0.609710  0.639303  1
  Y  Y16  1  0.195145  0.390290  0.360697  1
  Mo  Mo17  1  0.718433  0.000000  0.000000  1
  Mo  Mo18  1  0.281567  0.000000  0.000000  1
