# generated using pymatgen
data_Y5(ReO6)2
_symmetry_space_group_name_H-M   'P 1'
_cell_length_a   5.68993351
_cell_length_b   6.86129005
_cell_length_c   7.56995842
_cell_angle_alpha   73.75952968
_cell_angle_beta   90.00000000
_cell_angle_gamma   65.50333456
_symmetry_Int_Tables_number   1
_chemical_formula_structural   Y5(ReO6)2
_chemical_formula_sum   'Y5 Re2 O12'
_cell_volume   255.91522542
_cell_formula_units_Z   1
loop_
 _symmetry_equiv_pos_site_id
 _symmetry_equiv_pos_as_xyz
  1  'x, y, z'
loop_
 _atom_site_type_symbol
 _atom_site_label
 _atom_site_symmetry_multiplicity
 _atom_site_fract_x
 _atom_site_fract_y
 _atom_site_fract_z
 _atom_site_occupancy
  Y  Y0  1  0.686229  0.627543  0.825250  1
  Y  Y1  1  0.696560  0.606881  0.359134  1
  Y  Y2  1  0.303440  0.393119  0.640866  1
  Y  Y3  1  0.313771  0.372457  0.174750  1
  Y  Y4  1  0.000000  0.000000  0.500000  1
  Re  Re5  1  0.214333  1.000000  0.000000  1
  Re  Re6  1  0.785667  0.000000  1.000000  1
  O  O7  1  0.000705  0.998590  0.793938  1
  O  O8  1  0.500944  0.998111  0.176831  1
  O  O9  1  0.405958  0.692245  0.573919  1
  O  O10  1  0.901797  0.692245  0.573919  1
  O  O11  1  0.910847  0.670529  0.083778  1
  O  O12  1  0.418625  0.670529  0.083778  1
  O  O13  1  0.089153  0.329471  0.916222  1
  O  O14  1  0.581375  0.329471  0.916222  1
  O  O15  1  0.098203  0.307755  0.426081  1
  O  O16  1  0.594042  0.307755  0.426081  1
  O  O17  1  0.499056  0.001889  0.823169  1
  O  O18  1  0.999295  0.001410  0.206062  1
