# generated using pymatgen
data_Y5Tm11O24
_symmetry_space_group_name_H-M   'P 1'
_cell_length_a   9.13139573
_cell_length_b   9.13673877
_cell_length_c   9.13139712
_cell_angle_alpha   109.47341833
_cell_angle_beta   109.44746843
_cell_angle_gamma   109.46908651
_symmetry_Int_Tables_number   1
_chemical_formula_structural   Y5Tm11O24
_chemical_formula_sum   'Y5 Tm11 O24'
_cell_volume   586.63854434
_cell_formula_units_Z   1
loop_
 _symmetry_equiv_pos_site_id
 _symmetry_equiv_pos_as_xyz
  1  'x, y, z'
loop_
 _atom_site_type_symbol
 _atom_site_label
 _atom_site_symmetry_multiplicity
 _atom_site_fract_x
 _atom_site_fract_y
 _atom_site_fract_z
 _atom_site_occupancy
  Y  Y0  1  0.499012  0.999460  0.999510  1
  Y  Y1  1  0.967944  0.249998  0.217942  1
  Y  Y2  1  0.501376  0.501088  0.501148  1
  Y  Y3  1  0.000059  0.998910  0.500290  1
  Y  Y4  1  0.000048  0.500539  0.999550  1
  Tm  Tm5  1  0.716508  0.467408  0.249956  1
  Tm  Tm6  1  0.782544  0.032594  0.749099  1
  Tm  Tm7  1  0.749477  0.282731  0.533081  1
  Tm  Tm8  1  0.749687  0.781450  0.032422  1
  Tm  Tm9  1  0.532787  0.750003  0.282787  1
  Tm  Tm10  1  0.467275  0.250000  0.717270  1
  Tm  Tm11  1  0.250977  0.718555  0.468235  1
  Tm  Tm12  1  0.250351  0.217264  0.966743  1
  Tm  Tm13  1  0.283348  0.533210  0.751199  1
  Tm  Tm14  1  0.217991  0.966790  0.250137  1
  Tm  Tm15  1  0.032566  0.750003  0.782570  1
  O  O16  1  0.758121  0.031673  0.488231  1
  O  O17  1  0.738208  0.229877  0.273151  1
  O  O18  1  0.269125  0.011657  0.042922  1
  O  O19  1  0.969150  0.515127  0.243233  1
  O  O20  1  0.468353  0.226706  0.457068  1
  O  O21  1  0.768652  0.726236  0.257944  1
  O  O22  1  0.043274  0.270123  0.008328  1
  O  O23  1  0.456558  0.468326  0.226448  1
  O  O24  1  0.726374  0.257828  0.769656  1
  O  O25  1  0.773750  0.543360  0.531619  1
  O  O26  1  0.011805  0.039584  0.269647  1
  O  O27  1  0.488281  0.757901  0.031517  1
  O  O28  1  0.230062  0.460416  0.472221  1
  O  O29  1  0.988257  0.956640  0.730392  1
  O  O30  1  0.273617  0.742099  0.230382  1
  O  O31  1  0.511830  0.242172  0.968549  1
  O  O32  1  0.543539  0.531065  0.774127  1
  O  O33  1  0.957058  0.730333  0.987874  1
  O  O34  1  0.230362  0.273293  0.741647  1
  O  O35  1  0.531708  0.773763  0.542416  1
  O  O36  1  0.031264  0.488343  0.757467  1
  O  O37  1  0.728105  0.984872  0.954023  1
  O  O38  1  0.243062  0.968936  0.512475  1
  O  O39  1  0.257538  0.769666  0.726724  1
