# generated using pymatgen
data_Y3B7W
_symmetry_space_group_name_H-M   'P 1'
_cell_length_a   3.47319715
_cell_length_b   8.19499657
_cell_length_c   9.49972597
_cell_angle_alpha   90.00000000
_cell_angle_beta   90.00000000
_cell_angle_gamma   102.23428409
_symmetry_Int_Tables_number   1
_chemical_formula_structural   Y3B7W
_chemical_formula_sum   'Y6 B14 W2'
_cell_volume   264.24843270
_cell_formula_units_Z   2
loop_
 _symmetry_equiv_pos_site_id
 _symmetry_equiv_pos_as_xyz
  1  'x, y, z'
loop_
 _atom_site_type_symbol
 _atom_site_label
 _atom_site_symmetry_multiplicity
 _atom_site_fract_x
 _atom_site_fract_y
 _atom_site_fract_z
 _atom_site_occupancy
  B  B0  1  0.456196  0.912393  0.250000  1
  B  B1  1  0.543804  0.087607  0.750000  1
  B  B2  1  0.480263  0.960526  0.907952  1
  B  B3  1  0.519737  0.039474  0.092048  1
  B  B4  1  0.519737  0.039474  0.407952  1
  B  B5  1  0.480263  0.960526  0.592048  1
  B  B6  1  0.365121  0.730242  0.852666  1
  B  B7  1  0.634879  0.269758  0.147334  1
  B  B8  1  0.272537  0.545075  0.967094  1
  B  B9  1  0.727463  0.454925  0.032906  1
  B  B10  1  0.727463  0.454925  0.467094  1
  B  B11  1  0.272537  0.545075  0.532906  1
  B  B12  1  0.365121  0.730242  0.647334  1
  B  B13  1  0.634879  0.269758  0.352666  1
  Y  Y14  1  0.106624  0.213249  0.939673  1
  Y  Y15  1  0.893376  0.786751  0.060327  1
  Y  Y16  1  0.243858  0.487715  0.250000  1
  Y  Y17  1  0.756142  0.512285  0.750000  1
  Y  Y18  1  0.106624  0.213249  0.560327  1
  Y  Y19  1  0.893376  0.786751  0.439673  1
  W  W20  1  0.946469  0.892938  0.750000  1
  W  W21  1  0.053531  0.107062  0.250000  1
