# generated using pymatgen
data_Y6Cu11O24
_symmetry_space_group_name_H-M   'P 1'
_cell_length_a   8.14865741
_cell_length_b   6.33106925
_cell_length_c   10.06342832
_cell_angle_alpha   82.21952469
_cell_angle_beta   65.95396124
_cell_angle_gamma   90.76918664
_symmetry_Int_Tables_number   1
_chemical_formula_structural   Y6Cu11O24
_chemical_formula_sum   'Y6 Cu11 O24'
_cell_volume   468.39878001
_cell_formula_units_Z   1
loop_
 _symmetry_equiv_pos_site_id
 _symmetry_equiv_pos_as_xyz
  1  'x, y, z'
loop_
 _atom_site_type_symbol
 _atom_site_label
 _atom_site_symmetry_multiplicity
 _atom_site_fract_x
 _atom_site_fract_y
 _atom_site_fract_z
 _atom_site_occupancy
  Y  Y0  1  0.870814  0.755811  0.004887  1
  Y  Y1  1  0.795852  0.910856  0.661780  1
  Y  Y2  1  0.545330  0.409513  0.656852  1
  Y  Y3  1  0.464948  0.580149  0.333287  1
  Y  Y4  1  0.201719  0.086518  0.333379  1
  Y  Y5  1  0.121337  0.257154  0.009815  1
  Cu  Cu6  1  0.669308  0.173708  0.173059  1
  Cu  Cu7  1  0.497387  0.998066  0.999198  1
  Cu  Cu8  1  0.833333  0.333333  0.833333  1
  Cu  Cu9  1  0.833333  0.833333  0.333333  1
  Cu  Cu10  1  0.498341  0.005488  0.499803  1
  Cu  Cu11  1  0.502464  0.496702  0.996837  1
  Cu  Cu12  1  0.164203  0.169965  0.669830  1
  Cu  Cu13  1  0.168325  0.661178  0.166864  1
  Cu  Cu14  1  0.333333  0.833333  0.833333  1
  Cu  Cu15  1  0.169279  0.668601  0.667468  1
  Cu  Cu16  1  0.997358  0.492959  0.493608  1
  O  O17  1  0.868400  0.018404  0.157980  1
  O  O18  1  0.900811  0.035098  0.420418  1
  O  O19  1  0.837850  0.368100  0.015225  1
  O  O20  1  0.828817  0.298566  0.651441  1
  O  O21  1  0.765856  0.631569  0.246249  1
  O  O22  1  0.750870  0.038520  0.889993  1
  O  O23  1  0.915797  0.628146  0.776674  1
  O  O24  1  0.798267  0.648263  0.508687  1
  O  O25  1  0.547476  0.296600  0.451868  1
  O  O26  1  0.473003  0.322747  0.176172  1
  O  O27  1  0.511576  0.031015  0.678110  1
  O  O28  1  0.551500  0.726442  0.078229  1
  O  O29  1  0.447235  0.269943  0.916224  1
  O  O30  1  0.492605  0.972563  0.320136  1
  O  O31  1  0.533371  0.670963  0.818766  1
  O  O32  1  0.423836  0.708390  0.556222  1
  O  O33  1  0.193664  0.343920  0.490495  1
  O  O34  1  0.119190  0.370067  0.214799  1
  O  O35  1  0.242831  0.958277  0.110445  1
  O  O36  1  0.219431  0.396723  0.750443  1
  O  O37  1  0.174062  0.694104  0.346531  1
  O  O38  1  0.155090  0.635651  0.988557  1
  O  O39  1  0.115167  0.940225  0.588438  1
  O  O40  1  0.133296  0.995703  0.847901  1
