# generated using pymatgen
data_Y3FeB7
_symmetry_space_group_name_H-M   'P 1'
_cell_length_a   3.42114595
_cell_length_b   8.04952868
_cell_length_c   9.31454015
_cell_angle_alpha   90.00000000
_cell_angle_beta   90.00000000
_cell_angle_gamma   102.26924963
_symmetry_Int_Tables_number   1
_chemical_formula_structural   Y3FeB7
_chemical_formula_sum   'Y6 Fe2 B14'
_cell_volume   250.65077397
_cell_formula_units_Z   2
loop_
 _symmetry_equiv_pos_site_id
 _symmetry_equiv_pos_as_xyz
  1  'x, y, z'
loop_
 _atom_site_type_symbol
 _atom_site_label
 _atom_site_symmetry_multiplicity
 _atom_site_fract_x
 _atom_site_fract_y
 _atom_site_fract_z
 _atom_site_occupancy
  B  B0  1  0.460624  0.921248  0.250000  1
  B  B1  1  0.539376  0.078752  0.750000  1
  B  B2  1  0.478134  0.956268  0.901349  1
  B  B3  1  0.521866  0.043732  0.098651  1
  B  B4  1  0.521866  0.043732  0.401349  1
  B  B5  1  0.478134  0.956268  0.598651  1
  B  B6  1  0.370225  0.740450  0.846796  1
  B  B7  1  0.629775  0.259550  0.153204  1
  B  B8  1  0.272475  0.544949  0.966980  1
  B  B9  1  0.727525  0.455051  0.033020  1
  B  B10  1  0.727525  0.455051  0.466980  1
  B  B11  1  0.272475  0.544949  0.533020  1
  B  B12  1  0.370225  0.740450  0.653204  1
  B  B13  1  0.629775  0.259550  0.346796  1
  Fe  Fe14  1  0.054322  0.108644  0.250000  1
  Fe  Fe15  1  0.945678  0.891356  0.750000  1
  Y  Y16  1  0.242605  0.485210  0.250000  1
  Y  Y17  1  0.757395  0.514790  0.750000  1
  Y  Y18  1  0.104822  0.209644  0.560622  1
  Y  Y19  1  0.895178  0.790356  0.439378  1
  Y  Y20  1  0.895178  0.790356  0.060622  1
  Y  Y21  1  0.104822  0.209644  0.939378  1
