# generated using pymatgen
data_YHoO3
_symmetry_space_group_name_H-M   'P 1'
_cell_length_a   6.42500099
_cell_length_b   6.42512806
_cell_length_c   12.76526025
_cell_angle_alpha   90.00015684
_cell_angle_beta   89.99985915
_cell_angle_gamma   119.99951772
_symmetry_Int_Tables_number   1
_chemical_formula_structural   YHoO3
_chemical_formula_sum   'Y6 Ho6 O18'
_cell_volume   456.37033085
_cell_formula_units_Z   6
loop_
 _symmetry_equiv_pos_site_id
 _symmetry_equiv_pos_as_xyz
  1  'x, y, z'
loop_
 _atom_site_type_symbol
 _atom_site_label
 _atom_site_symmetry_multiplicity
 _atom_site_fract_x
 _atom_site_fract_y
 _atom_site_fract_z
 _atom_site_occupancy
  Y  Y0  1  0.333327  0.666664  0.236987  1
  Y  Y1  1  0.999994  0.000008  0.269852  1
  Y  Y2  1  0.000001  0.000002  0.769849  1
  Y  Y3  1  0.333326  0.666658  0.736988  1
  Y  Y4  1  0.666660  0.333328  0.736988  1
  Y  Y5  1  0.666664  0.333337  0.236986  1
  Ho  Ho6  1  0.999972  0.666854  0.501456  1
  Ho  Ho7  1  0.000014  0.333146  0.001456  1
  Ho  Ho8  1  0.333102  0.333102  0.501459  1
  Ho  Ho9  1  0.666881  0.666899  0.001460  1
  Ho  Ho10  1  0.333115  0.000016  0.001457  1
  Ho  Ho11  1  0.666855  0.999977  0.501457  1
  O  O12  1  0.000002  0.693289  0.674945  1
  O  O13  1  0.999993  0.637767  0.329537  1
  O  O14  1  0.000004  0.362232  0.829537  1
  O  O15  1  0.999990  0.306710  0.174945  1
  O  O16  1  0.333333  0.666696  0.029039  1
  O  O17  1  0.999981  0.999982  0.467883  1
  O  O18  1  0.999996  0.000022  0.967883  1
  O  O19  1  0.333304  0.666646  0.529039  1
  O  O20  1  0.306712  0.306713  0.674947  1
  O  O21  1  0.362240  0.362243  0.329540  1
  O  O22  1  0.306734  0.000005  0.174946  1
  O  O23  1  0.637755  0.637758  0.829543  1
  O  O24  1  0.693280  0.693291  0.174952  1
  O  O25  1  0.362224  0.000000  0.829539  1
  O  O26  1  0.666654  0.333310  0.529037  1
  O  O27  1  0.666673  0.333346  0.029038  1
  O  O28  1  0.637759  0.000006  0.329535  1
  O  O29  1  0.693255  0.999994  0.674945  1
