# generated using pymatgen
data_Y6Mn23
_symmetry_space_group_name_H-M   'P 1'
_cell_length_a   8.54772474
_cell_length_b   8.54772474
_cell_length_c   8.54772474
_cell_angle_alpha   60.00000000
_cell_angle_beta   60.00000000
_cell_angle_gamma   60.00000000
_symmetry_Int_Tables_number   1
_chemical_formula_structural   Y6Mn23
_chemical_formula_sum   'Y6 Mn23'
_cell_volume   441.60764938
_cell_formula_units_Z   1
loop_
 _symmetry_equiv_pos_site_id
 _symmetry_equiv_pos_as_xyz
  1  'x, y, z'
loop_
 _atom_site_type_symbol
 _atom_site_label
 _atom_site_symmetry_multiplicity
 _atom_site_fract_x
 _atom_site_fract_y
 _atom_site_fract_z
 _atom_site_occupancy
  Y  Y0  1  0.794799  0.205201  0.205201  1
  Y  Y1  1  0.794799  0.205201  0.794799  1
  Y  Y2  1  0.794799  0.794799  0.205201  1
  Y  Y3  1  0.205201  0.794799  0.794799  1
  Y  Y4  1  0.205201  0.794799  0.205201  1
  Y  Y5  1  0.205201  0.205201  0.794799  1
  Mn  Mn6  1  0.500000  0.500000  0.500000  1
  Mn  Mn7  1  0.500000  -0.000000  -0.000000  1
  Mn  Mn8  1  0.500000  -0.000000  0.500000  1
  Mn  Mn9  1  0.500000  0.500000  -0.000000  1
  Mn  Mn10  1  0.000000  0.500000  0.500000  1
  Mn  Mn11  1  0.000000  0.500000  -0.000000  1
  Mn  Mn12  1  0.000000  -0.000000  0.500000  1
  Mn  Mn13  1  0.466430  0.177857  0.177857  1
  Mn  Mn14  1  0.177857  0.466430  0.177857  1
  Mn  Mn15  1  0.177857  0.177857  0.466430  1
  Mn  Mn16  1  0.177857  0.177857  0.177857  1
  Mn  Mn17  1  0.533570  0.822143  0.822143  1
  Mn  Mn18  1  0.822143  0.533570  0.822143  1
  Mn  Mn19  1  0.822143  0.822143  0.533570  1
  Mn  Mn20  1  0.822143  0.822143  0.822143  1
  Mn  Mn21  1  0.866171  0.377943  0.377943  1
  Mn  Mn22  1  0.377943  0.866171  0.377943  1
  Mn  Mn23  1  0.377943  0.377943  0.866171  1
  Mn  Mn24  1  0.377943  0.377943  0.377943  1
  Mn  Mn25  1  0.133829  0.622057  0.622057  1
  Mn  Mn26  1  0.622057  0.133829  0.622057  1
  Mn  Mn27  1  0.622057  0.622057  0.133829  1
  Mn  Mn28  1  0.622057  0.622057  0.622057  1
