# generated using pymatgen
data_Y3NbO7
_symmetry_space_group_name_H-M   'P 1'
_cell_length_a   7.65636186
_cell_length_b   17.32396894
_cell_length_c   9.35471591
_cell_angle_alpha   25.97333526
_cell_angle_beta   35.00901463
_cell_angle_gamma   48.39228581
_symmetry_Int_Tables_number   1
_chemical_formula_structural   Y3NbO7
_chemical_formula_sum   'Y6 Nb2 O14'
_cell_volume   298.56830486
_cell_formula_units_Z   2
loop_
 _symmetry_equiv_pos_site_id
 _symmetry_equiv_pos_as_xyz
  1  'x, y, z'
loop_
 _atom_site_type_symbol
 _atom_site_label
 _atom_site_symmetry_multiplicity
 _atom_site_fract_x
 _atom_site_fract_y
 _atom_site_fract_z
 _atom_site_occupancy
  Y  Y0  1  0.000756  0.998475  0.005227  1
  Y  Y1  1  0.499644  0.998665  0.006189  1
  Y  Y2  1  0.409405  0.260878  0.950793  1
  Y  Y3  1  0.149304  0.735925  0.998208  1
  Y  Y4  1  0.858348  0.257090  0.007242  1
  Y  Y5  1  0.597665  0.740012  0.043441  1
  Nb  Nb6  1  0.221696  0.498099  0.998525  1
  Nb  Nb7  1  0.727762  0.499329  0.991188  1
  O  O8  1  0.511691  0.998772  0.244041  1
  O  O9  1  0.335611  0.255991  0.250926  1
  O  O10  1  0.494363  0.999527  0.760246  1
  O  O11  1  0.308641  0.517880  0.171735  1
  O  O12  1  0.893989  0.264458  0.241226  1
  O  O13  1  0.351858  0.251760  0.742491  1
  O  O14  1  0.083666  0.745601  0.268014  1
  O  O15  1  0.241823  0.519005  0.736912  1
  O  O16  1  0.787576  0.479978  0.254404  1
  O  O17  1  0.921295  0.259347  0.720605  1
  O  O18  1  0.099327  0.748582  0.748825  1
  O  O19  1  0.627641  0.731544  0.306119  1
  O  O20  1  0.735167  0.481044  0.805248  1
  O  O21  1  0.662625  0.735163  0.765625  1
