# generated using pymatgen
data_Y3ReB7
_symmetry_space_group_name_H-M   'P 1'
_cell_length_a   3.67425175
_cell_length_b   7.76289387
_cell_length_c   10.08088780
_cell_angle_alpha   90.00000000
_cell_angle_beta   90.00000000
_cell_angle_gamma   103.68918595
_symmetry_Int_Tables_number   1
_chemical_formula_structural   Y3ReB7
_chemical_formula_sum   'Y6 Re2 B14'
_cell_volume   279.36762507
_cell_formula_units_Z   2
loop_
 _symmetry_equiv_pos_site_id
 _symmetry_equiv_pos_as_xyz
  1  'x, y, z'
loop_
 _atom_site_type_symbol
 _atom_site_label
 _atom_site_symmetry_multiplicity
 _atom_site_fract_x
 _atom_site_fract_y
 _atom_site_fract_z
 _atom_site_occupancy
  Y  Y0  1  0.834340  0.668681  0.942774  1
  Y  Y1  1  0.972502  0.945004  0.250000  1
  Y  Y2  1  0.165660  0.331319  0.057226  1
  Y  Y3  1  0.027498  0.054996  0.750000  1
  Y  Y4  1  0.834340  0.668681  0.557226  1
  Y  Y5  1  0.165660  0.331319  0.442774  1
  Re  Re6  1  0.223264  0.446528  0.750000  1
  Re  Re7  1  0.776736  0.553472  0.250000  1
  B  B8  1  0.550008  0.100016  0.945858  1
  B  B9  1  0.553202  0.106405  0.115738  1
  B  B10  1  0.379328  0.758657  0.750000  1
  B  B11  1  0.654478  0.308956  0.660495  1
  B  B12  1  0.620672  0.241343  0.250000  1
  B  B13  1  0.446798  0.893595  0.615738  1
  B  B14  1  0.345522  0.691044  0.160495  1
  B  B15  1  0.449992  0.899984  0.445858  1
  B  B16  1  0.345522  0.691044  0.339505  1
  B  B17  1  0.449992  0.899984  0.054142  1
  B  B18  1  0.446798  0.893595  0.884262  1
  B  B19  1  0.654478  0.308956  0.839505  1
  B  B20  1  0.553202  0.106405  0.384262  1
  B  B21  1  0.550008  0.100016  0.554142  1
