# generated using pymatgen
data_Y3ReB7
_symmetry_space_group_name_H-M   'P 1'
_cell_length_a   3.54412462
_cell_length_b   8.11120137
_cell_length_c   9.37083055
_cell_angle_alpha   90.00000000
_cell_angle_beta   90.00000000
_cell_angle_gamma   102.61924359
_symmetry_Int_Tables_number   1
_chemical_formula_structural   Y3ReB7
_chemical_formula_sum   'Y6 Re2 B14'
_cell_volume   262.87688481
_cell_formula_units_Z   2
loop_
 _symmetry_equiv_pos_site_id
 _symmetry_equiv_pos_as_xyz
  1  'x, y, z'
loop_
 _atom_site_type_symbol
 _atom_site_label
 _atom_site_symmetry_multiplicity
 _atom_site_fract_x
 _atom_site_fract_y
 _atom_site_fract_z
 _atom_site_occupancy
  B  B0  1  0.457688  0.915377  0.250000  1
  B  B1  1  0.542312  0.084623  0.750000  1
  B  B2  1  0.479365  0.958731  0.904509  1
  B  B3  1  0.520635  0.041269  0.095491  1
  B  B4  1  0.520635  0.041269  0.404509  1
  B  B5  1  0.479365  0.958731  0.595491  1
  B  B6  1  0.368205  0.736409  0.849224  1
  B  B7  1  0.631795  0.263591  0.150776  1
  B  B8  1  0.273005  0.546010  0.966273  1
  B  B9  1  0.726995  0.453990  0.033727  1
  B  B10  1  0.726995  0.453990  0.466273  1
  B  B11  1  0.273005  0.546010  0.533727  1
  B  B12  1  0.368205  0.736409  0.650776  1
  B  B13  1  0.631795  0.263591  0.349224  1
  Y  Y14  1  0.105152  0.210303  0.939938  1
  Y  Y15  1  0.894848  0.789697  0.060062  1
  Y  Y16  1  0.241964  0.483929  0.250000  1
  Y  Y17  1  0.758036  0.516071  0.750000  1
  Y  Y18  1  0.105152  0.210303  0.560062  1
  Y  Y19  1  0.894848  0.789697  0.439938  1
  Re  Re20  1  0.946985  0.893970  0.750000  1
  Re  Re21  1  0.053015  0.106030  0.250000  1
