# generated using pymatgen
data_YScO3
_symmetry_space_group_name_H-M   'P 1'
_cell_length_a   6.21722498
_cell_length_b   6.21726096
_cell_length_c   12.29962708
_cell_angle_alpha   89.99969395
_cell_angle_beta   90.00035698
_cell_angle_gamma   120.00067946
_symmetry_Int_Tables_number   1
_chemical_formula_structural   YScO3
_chemical_formula_sum   'Y6 Sc6 O18'
_cell_volume   411.73262598
_cell_formula_units_Z   6
loop_
 _symmetry_equiv_pos_site_id
 _symmetry_equiv_pos_as_xyz
  1  'x, y, z'
loop_
 _atom_site_type_symbol
 _atom_site_label
 _atom_site_symmetry_multiplicity
 _atom_site_fract_x
 _atom_site_fract_y
 _atom_site_fract_z
 _atom_site_occupancy
  Y  Y0  1  0.333332  0.666683  0.235687  1
  Y  Y1  1  0.999999  0.000019  0.275207  1
  Y  Y2  1  0.999984  0.999982  0.775207  1
  Y  Y3  1  0.333313  0.666646  0.735686  1
  Y  Y4  1  0.666652  0.333317  0.735687  1
  Y  Y5  1  0.666669  0.333352  0.235684  1
  Sc  Sc6  1  0.999965  0.666165  0.501889  1
  Sc  Sc7  1  0.000030  0.333821  0.001881  1
  Sc  Sc8  1  0.333785  0.333794  0.501868  1
  Sc  Sc9  1  0.666231  0.666237  0.001875  1
  Sc  Sc10  1  0.333794  0.000034  0.001887  1
  Sc  Sc11  1  0.666188  0.999958  0.501878  1
  O  O12  1  0.999983  0.692029  0.669315  1
  O  O13  1  0.999997  0.641087  0.335792  1
  O  O14  1  0.999986  0.358908  0.835792  1
  O  O15  1  0.999999  0.307963  0.169314  1
  O  O16  1  0.333331  0.666689  0.021841  1
  O  O17  1  0.999982  0.999978  0.476389  1
  O  O18  1  0.000003  0.000015  0.976386  1
  O  O19  1  0.333313  0.666645  0.521840  1
  O  O20  1  0.307932  0.307925  0.669316  1
  O  O21  1  0.358910  0.358932  0.335794  1
  O  O22  1  0.307951  0.000022  0.169316  1
  O  O23  1  0.641070  0.641073  0.835793  1
  O  O24  1  0.692047  0.692074  0.169316  1
  O  O25  1  0.358905  0.999986  0.835792  1
  O  O26  1  0.666650  0.333308  0.521840  1
  O  O27  1  0.666675  0.333360  0.021842  1
  O  O28  1  0.641085  0.000016  0.335794  1
  O  O29  1  0.692036  0.999983  0.669315  1
