# generated using pymatgen
data_Y3TaO7
_symmetry_space_group_name_H-M   'P 1'
_cell_length_a   6.52080081
_cell_length_b   6.52080081
_cell_length_c   7.48653683
_cell_angle_alpha   90.00000000
_cell_angle_beta   90.00000000
_cell_angle_gamma   108.54361858
_symmetry_Int_Tables_number   1
_chemical_formula_structural   Y3TaO7
_chemical_formula_sum   'Y6 Ta2 O14'
_cell_volume   301.80654448
_cell_formula_units_Z   2
loop_
 _symmetry_equiv_pos_site_id
 _symmetry_equiv_pos_as_xyz
  1  'x, y, z'
loop_
 _atom_site_type_symbol
 _atom_site_label
 _atom_site_symmetry_multiplicity
 _atom_site_fract_x
 _atom_site_fract_y
 _atom_site_fract_z
 _atom_site_occupancy
  O  O0  1  0.932878  0.067122  0.500000  1
  O  O1  1  0.067122  0.932878  0.000000  1
  O  O2  1  0.359797  0.640203  0.000000  1
  O  O3  1  0.640203  0.359797  0.500000  1
  O  O4  1  0.371437  0.628563  0.500000  1
  O  O5  1  0.628563  0.371437  0.000000  1
  O  O6  1  0.327810  0.082258  0.726615  1
  O  O7  1  0.672190  0.917742  0.226615  1
  O  O8  1  0.305622  0.047357  0.295000  1
  O  O9  1  0.694378  0.952643  0.795000  1
  O  O10  1  0.047357  0.305622  0.205000  1
  O  O11  1  0.952643  0.694378  0.705000  1
  O  O12  1  0.917742  0.672190  0.273385  1
  O  O13  1  0.082258  0.327810  0.773385  1
  Y  Y14  1  0.999693  0.534987  0.990628  1
  Y  Y15  1  0.000307  0.465013  0.490628  1
  Y  Y16  1  0.534987  0.999693  0.509372  1
  Y  Y17  1  0.465013  0.000307  0.009372  1
  Y  Y18  1  0.461440  0.461440  0.750000  1
  Y  Y19  1  0.538560  0.538560  0.250000  1
  Ta  Ta20  1  0.997864  0.997864  0.750000  1
  Ta  Ta21  1  0.002136  0.002136  0.250000  1
