# generated using pymatgen
data_Y6Zr22O53
_symmetry_space_group_name_H-M   'P 1'
_cell_length_a   3.62743901
_cell_length_b   3.73140882
_cell_length_c   74.42937543
_cell_angle_alpha   90.00000000
_cell_angle_beta   90.00000000
_cell_angle_gamma   90.00000000
_symmetry_Int_Tables_number   1
_chemical_formula_structural   Y6Zr22O53
_chemical_formula_sum   'Y6 Zr22 O53'
_cell_volume   1007.43567884
_cell_formula_units_Z   1
loop_
 _symmetry_equiv_pos_site_id
 _symmetry_equiv_pos_as_xyz
  1  'x, y, z'
loop_
 _atom_site_type_symbol
 _atom_site_label
 _atom_site_symmetry_multiplicity
 _atom_site_fract_x
 _atom_site_fract_y
 _atom_site_fract_z
 _atom_site_occupancy
  O  O0  1  0.000000  0.500000  0.014831  1
  O  O1  1  0.000000  0.500000  0.050085  1
  O  O2  1  0.000000  0.500000  0.085306  1
  O  O3  1  0.000000  0.500000  0.120946  1
  O  O4  1  0.000000  0.500000  0.156454  1
  O  O5  1  0.000000  0.500000  0.192243  1
  O  O6  1  0.000000  0.500000  0.263685  1
  O  O7  1  0.000000  0.500000  0.299330  1
  O  O8  1  0.000000  0.500000  0.335197  1
  O  O9  1  0.000000  0.500000  0.370879  1
  O  O10  1  0.000000  0.500000  0.406791  1
  O  O11  1  0.000000  0.500000  0.478458  1
  O  O12  1  0.000000  0.500000  0.550273  1
  O  O13  1  0.000000  0.500000  0.629130  1
  O  O14  1  0.000000  0.500000  0.695977  1
  O  O15  1  0.000000  0.500000  0.773046  1
  O  O16  1  0.000000  0.500000  0.839102  1
  O  O17  1  0.000000  0.500000  0.916145  1
  O  O18  1  0.000000  0.500000  0.980386  1
  O  O19  1  0.500000  0.000000  0.022254  1
  O  O20  1  0.500000  0.000000  0.093435  1
  O  O21  1  0.500000  0.000000  0.164821  1
  O  O22  1  0.500000  0.000000  0.236291  1
  O  O23  1  0.500000  0.000000  0.307804  1
  O  O24  1  0.500000  0.000000  0.379328  1
  O  O25  1  0.500000  0.000000  0.520726  1
  O  O26  1  0.500000  0.000000  0.588328  1
  O  O27  1  0.500000  0.000000  0.659724  1
  O  O28  1  0.500000  0.000000  0.450602  1
  O  O29  1  0.500000  0.000000  0.731649  1
  O  O30  1  0.500000  0.000000  0.803149  1
  O  O31  1  0.500000  0.000000  0.874966  1
  O  O32  1  0.500000  0.000000  0.946596  1
  O  O33  1  0.500000  0.000000  0.128998  1
  O  O34  1  0.500000  0.000000  0.057684  1
  O  O35  1  0.500000  0.000000  0.200440  1
  O  O36  1  0.500000  0.000000  0.271938  1
  O  O37  1  0.500000  0.000000  0.343466  1
  O  O38  1  0.500000  0.000000  0.485750  1
  O  O39  1  0.500000  0.000000  0.624478  1
  O  O40  1  0.500000  0.000000  0.414921  1
  O  O41  1  0.500000  0.000000  0.554627  1
  O  O42  1  0.500000  0.000000  0.767981  1
  O  O43  1  0.500000  0.000000  0.697937  1
  O  O44  1  0.500000  0.000000  0.841239  1
  O  O45  1  0.500000  0.000000  0.911359  1
  O  O46  1  0.500000  0.000000  0.986611  1
  O  O47  1  0.000000  0.500000  0.227845  1
  O  O48  1  0.000000  0.500000  0.442509  1
  O  O49  1  0.000000  0.500000  0.514188  1
  O  O50  1  0.000000  0.500000  0.586018  1
  O  O51  1  0.000000  0.500000  0.730799  1
  O  O52  1  0.000000  0.500000  0.873909  1
  Y  Y53  1  0.500000  0.500000  0.604074  1
  Y  Y54  1  0.500000  0.500000  0.747973  1
  Y  Y55  1  0.500000  0.500000  0.681006  1
  Y  Y56  1  0.500000  0.500000  0.891200  1
  Y  Y57  1  0.500000  0.500000  0.824239  1
  Y  Y58  1  0.500000  0.500000  0.966869  1
  Zr  Zr59  1  0.000000  0.000000  0.001366  1
  Zr  Zr60  1  0.500000  0.500000  0.107298  1
  Zr  Zr61  1  0.500000  0.500000  0.036320  1
  Zr  Zr62  1  0.500000  0.500000  0.250080  1
  Zr  Zr63  1  0.500000  0.500000  0.178627  1
  Zr  Zr64  1  0.500000  0.500000  0.393138  1
  Zr  Zr65  1  0.500000  0.500000  0.321590  1
  Zr  Zr66  1  0.500000  0.500000  0.464568  1
  Zr  Zr67  1  0.500000  0.500000  0.535383  1
  Zr  Zr68  1  0.000000  0.000000  0.072091  1
  Zr  Zr69  1  0.000000  0.000000  0.143309  1
  Zr  Zr70  1  0.000000  0.000000  0.286211  1
  Zr  Zr71  1  0.000000  0.000000  0.357745  1
  Zr  Zr72  1  0.000000  0.000000  0.214722  1
  Zr  Zr73  1  0.000000  0.000000  0.500397  1
  Zr  Zr74  1  0.000000  0.000000  0.570470  1
  Zr  Zr75  1  0.000000  0.000000  0.429257  1
  Zr  Zr76  1  0.000000  0.000000  0.639199  1
  Zr  Zr77  1  0.000000  0.000000  0.714593  1
  Zr  Zr78  1  0.000000  0.000000  0.782853  1
  Zr  Zr79  1  0.000000  0.000000  0.926122  1
  Zr  Zr80  1  0.000000  0.000000  0.857807  1
