# generated using pymatgen
data_Y2Au
_symmetry_space_group_name_H-M   'P 1'
_cell_length_a   7.18228562
_cell_length_b   4.98281571
_cell_length_c   8.99945688
_cell_angle_alpha   90.00007168
_cell_angle_beta   89.99978925
_cell_angle_gamma   89.99992658
_symmetry_Int_Tables_number   1
_chemical_formula_structural   Y2Au
_chemical_formula_sum   'Y8 Au4'
_cell_volume   322.07261341
_cell_formula_units_Z   4
loop_
 _symmetry_equiv_pos_site_id
 _symmetry_equiv_pos_as_xyz
  1  'x, y, z'
loop_
 _atom_site_type_symbol
 _atom_site_label
 _atom_site_symmetry_multiplicity
 _atom_site_fract_x
 _atom_site_fract_y
 _atom_site_fract_z
 _atom_site_occupancy
  Y  Y0  1  0.148047  0.250000  0.080643  1
  Y  Y1  1  0.484411  0.750000  0.175962  1
  Y  Y2  1  0.984412  0.750000  0.324038  1
  Y  Y3  1  0.648048  0.250001  0.419357  1
  Y  Y4  1  0.351952  0.750001  0.580642  1
  Y  Y5  1  0.015588  0.250001  0.675961  1
  Y  Y6  1  0.515588  0.250001  0.824038  1
  Y  Y7  1  0.851953  0.750001  0.919358  1
  Au  Au8  1  0.742524  0.250001  0.100004  1
  Au  Au9  1  0.242524  0.250000  0.399996  1
  Au  Au10  1  0.757476  0.750000  0.600004  1
  Au  Au11  1  0.257475  0.750000  0.899998  1
