# generated using pymatgen
data_Y4CoB13
_symmetry_space_group_name_H-M   'P 1'
_cell_length_a   7.32419225
_cell_length_b   7.32419225
_cell_length_c   6.91986170
_cell_angle_alpha   90.00000000
_cell_angle_beta   90.00000000
_cell_angle_gamma   90.00000000
_symmetry_Int_Tables_number   1
_chemical_formula_structural   Y4CoB13
_chemical_formula_sum   'Y8 Co2 B26'
_cell_volume   371.20762250
_cell_formula_units_Z   2
loop_
 _symmetry_equiv_pos_site_id
 _symmetry_equiv_pos_as_xyz
  1  'x, y, z'
loop_
 _atom_site_type_symbol
 _atom_site_label
 _atom_site_symmetry_multiplicity
 _atom_site_fract_x
 _atom_site_fract_y
 _atom_site_fract_z
 _atom_site_occupancy
  Y  Y0  1  0.184781  0.680818  0.000000  1
  Y  Y1  1  0.319182  0.184781  0.000000  1
  Y  Y2  1  0.680818  0.815219  0.000000  1
  Y  Y3  1  0.684781  0.819182  0.500000  1
  Y  Y4  1  0.315219  0.180818  0.500000  1
  Y  Y5  1  0.815219  0.319182  0.000000  1
  Y  Y6  1  0.180818  0.684781  0.500000  1
  Y  Y7  1  0.819182  0.315219  0.500000  1
  Co  Co8  1  0.000000  0.000000  0.000000  1
  Co  Co9  1  0.500000  0.500000  0.500000  1
  B  B10  1  0.000000  0.000000  0.500000  1
  B  B11  1  0.500000  0.500000  0.000000  1
  B  B12  1  0.409043  0.909043  0.250000  1
  B  B13  1  0.090957  0.409043  0.250000  1
  B  B14  1  0.909043  0.590957  0.250000  1
  B  B15  1  0.590957  0.090957  0.250000  1
  B  B16  1  0.590957  0.090957  0.750000  1
  B  B17  1  0.909043  0.590957  0.750000  1
  B  B18  1  0.090957  0.409043  0.750000  1
  B  B19  1  0.409043  0.909043  0.750000  1
  B  B20  1  0.039255  0.169599  0.253631  1
  B  B21  1  0.830401  0.039255  0.253631  1
  B  B22  1  0.169599  0.960745  0.253631  1
  B  B23  1  0.539255  0.330401  0.246369  1
  B  B24  1  0.460745  0.669599  0.246369  1
  B  B25  1  0.960745  0.830401  0.253631  1
  B  B26  1  0.669599  0.539255  0.246369  1
  B  B27  1  0.330401  0.460745  0.246369  1
  B  B28  1  0.960745  0.830401  0.746369  1
  B  B29  1  0.169599  0.960745  0.746369  1
  B  B30  1  0.830401  0.039255  0.746369  1
  B  B31  1  0.460745  0.669599  0.753631  1
  B  B32  1  0.539255  0.330401  0.753631  1
  B  B33  1  0.039255  0.169599  0.746369  1
  B  B34  1  0.330401  0.460745  0.753631  1
  B  B35  1  0.669599  0.539255  0.753631  1
