# generated using pymatgen
data_Y2Cu2O5
_symmetry_space_group_name_H-M   'P 1'
_cell_length_a   3.54321188
_cell_length_b   10.92873359
_cell_length_c   12.58126509
_cell_angle_alpha   90.00000000
_cell_angle_beta   90.00000000
_cell_angle_gamma   90.00000000
_symmetry_Int_Tables_number   1
_chemical_formula_structural   Y2Cu2O5
_chemical_formula_sum   'Y8 Cu8 O20'
_cell_volume   487.18204696
_cell_formula_units_Z   4
loop_
 _symmetry_equiv_pos_site_id
 _symmetry_equiv_pos_as_xyz
  1  'x, y, z'
loop_
 _atom_site_type_symbol
 _atom_site_label
 _atom_site_symmetry_multiplicity
 _atom_site_fract_x
 _atom_site_fract_y
 _atom_site_fract_z
 _atom_site_occupancy
  O  O0  1  0.271384  0.076180  0.027739  1
  O  O1  1  0.728616  0.923820  0.527739  1
  O  O2  1  0.228616  0.576180  0.027739  1
  O  O3  1  0.771384  0.423820  0.527739  1
  O  O4  1  0.725829  0.071999  0.238457  1
  O  O5  1  0.274171  0.928001  0.738457  1
  O  O6  1  0.774171  0.571999  0.238457  1
  O  O7  1  0.225829  0.428001  0.738457  1
  O  O8  1  0.146136  0.375332  0.335977  1
  O  O9  1  0.853864  0.624668  0.835977  1
  O  O10  1  0.353864  0.875332  0.335977  1
  O  O11  1  0.646136  0.124668  0.835977  1
  O  O12  1  0.779850  0.177577  0.434163  1
  O  O13  1  0.220150  0.822423  0.934163  1
  O  O14  1  0.720150  0.677577  0.434163  1
  O  O15  1  0.279850  0.322423  0.934163  1
  O  O16  1  0.273556  0.174004  0.644603  1
  O  O17  1  0.726444  0.825996  0.144603  1
  O  O18  1  0.226444  0.674004  0.644603  1
  O  O19  1  0.773556  0.325996  0.144603  1
  Cu  Cu20  1  0.841707  0.237943  0.283375  1
  Cu  Cu21  1  0.158293  0.762057  0.783375  1
  Cu  Cu22  1  0.658293  0.737943  0.283375  1
  Cu  Cu23  1  0.341707  0.262057  0.783375  1
  Cu  Cu24  1  0.662312  0.011776  0.388888  1
  Cu  Cu25  1  0.337688  0.988224  0.888888  1
  Cu  Cu26  1  0.837688  0.511776  0.388888  1
  Cu  Cu27  1  0.162312  0.488224  0.888888  1
  Y  Y28  1  0.277231  0.457381  0.172361  1
  Y  Y29  1  0.722769  0.542619  0.672361  1
  Y  Y30  1  0.222769  0.957381  0.172361  1
  Y  Y31  1  0.777231  0.042619  0.672361  1
  Y  Y32  1  0.278511  0.292466  0.499437  1
  Y  Y33  1  0.721489  0.707534  0.999437  1
  Y  Y34  1  0.221489  0.792466  0.499437  1
  Y  Y35  1  0.778511  0.207534  0.999437  1
