# generated using pymatgen
data_Y2HfO5
_symmetry_space_group_name_H-M   'P 1'
_cell_length_a   9.68786947
_cell_length_b   7.23389716
_cell_length_c   6.51167014
_cell_angle_alpha   90.00000000
_cell_angle_beta   104.73381654
_cell_angle_gamma   90.00000000
_symmetry_Int_Tables_number   1
_chemical_formula_structural   Y2HfO5
_chemical_formula_sum   'Y8 Hf4 O20'
_cell_volume   441.33907901
_cell_formula_units_Z   4
loop_
 _symmetry_equiv_pos_site_id
 _symmetry_equiv_pos_as_xyz
  1  'x, y, z'
loop_
 _atom_site_type_symbol
 _atom_site_label
 _atom_site_symmetry_multiplicity
 _atom_site_fract_x
 _atom_site_fract_y
 _atom_site_fract_z
 _atom_site_occupancy
  Y  Y0  1  0.146806  0.362537  0.970688  1
  Y  Y1  1  0.146806  0.137463  0.470688  1
  Y  Y2  1  0.469201  0.376213  0.760896  1
  Y  Y3  1  0.530799  0.876213  0.739104  1
  Y  Y4  1  0.469201  0.123787  0.260896  1
  Y  Y5  1  0.530799  0.623787  0.239104  1
  Y  Y6  1  0.853194  0.862537  0.529312  1
  Y  Y7  1  0.853194  0.637463  0.029312  1
  Hf  Hf8  1  0.188822  0.889060  0.938527  1
  Hf  Hf9  1  0.188822  0.610940  0.438527  1
  Hf  Hf10  1  0.811178  0.389060  0.561473  1
  Hf  Hf11  1  0.811178  0.110940  0.061473  1
  O  O12  1  0.151637  0.677445  0.110535  1
  O  O13  1  0.065221  0.106369  0.770631  1
  O  O14  1  0.151637  0.822555  0.610535  1
  O  O15  1  0.223576  0.409632  0.664454  1
  O  O16  1  0.065221  0.393631  0.270631  1
  O  O17  1  0.223576  0.090368  0.164454  1
  O  O18  1  0.390054  0.111830  0.574571  1
  O  O19  1  0.398456  0.637342  0.504728  1
  O  O20  1  0.390054  0.388170  0.074571  1
  O  O21  1  0.398456  0.862658  0.004728  1
  O  O22  1  0.601544  0.137342  0.995272  1
  O  O23  1  0.609946  0.611830  0.925429  1
  O  O24  1  0.601544  0.362658  0.495272  1
  O  O25  1  0.609946  0.888170  0.425429  1
  O  O26  1  0.776424  0.909632  0.835546  1
  O  O27  1  0.934779  0.606369  0.729369  1
  O  O28  1  0.776424  0.590368  0.335546  1
  O  O29  1  0.848363  0.177445  0.389465  1
  O  O30  1  0.934779  0.893631  0.229369  1
  O  O31  1  0.848363  0.322555  0.889465  1
