# generated using pymatgen
data_Y2Hf2O7
_symmetry_space_group_name_H-M   'P 1'
_cell_length_a   7.31412580
_cell_length_b   7.31421657
_cell_length_c   12.52360611
_cell_angle_alpha   90.00011083
_cell_angle_beta   90.00019619
_cell_angle_gamma   89.99999538
_symmetry_Int_Tables_number   1
_chemical_formula_structural   Y2Hf2O7
_chemical_formula_sum   'Y8 Hf8 O28'
_cell_volume   669.97660995
_cell_formula_units_Z   4
loop_
 _symmetry_equiv_pos_site_id
 _symmetry_equiv_pos_as_xyz
  1  'x, y, z'
loop_
 _atom_site_type_symbol
 _atom_site_label
 _atom_site_symmetry_multiplicity
 _atom_site_fract_x
 _atom_site_fract_y
 _atom_site_fract_z
 _atom_site_occupancy
  Y  Y0  1  0.136980  0.625334  0.134058  1
  Y  Y1  1  0.125356  0.363019  0.884053  1
  Y  Y2  1  0.374645  0.863019  0.365947  1
  Y  Y3  1  0.363021  0.125342  0.115946  1
  Y  Y4  1  0.636985  0.874655  0.615943  1
  Y  Y5  1  0.625350  0.136985  0.865944  1
  Y  Y6  1  0.874655  0.636975  0.384054  1
  Y  Y7  1  0.863026  0.374659  0.634054  1
  Hf  Hf8  1  0.098972  0.871599  0.594652  1
  Hf  Hf9  1  0.128391  0.901047  0.905348  1
  Hf  Hf10  1  0.371614  0.401033  0.344654  1
  Hf  Hf11  1  0.401043  0.371613  0.655340  1
  Hf  Hf12  1  0.598974  0.628398  0.155347  1
  Hf  Hf13  1  0.628401  0.598967  0.844653  1
  Hf  Hf14  1  0.871613  0.098951  0.405347  1
  Hf  Hf15  1  0.901021  0.128391  0.094654  1
  O  O16  1  0.069712  0.908923  0.415328  1
  O  O17  1  0.081767  0.325927  0.073799  1
  O  O18  1  0.091058  0.930274  0.084672  1
  O  O19  1  0.152905  0.640276  0.953065  1
  O  O20  1  0.174076  0.581740  0.323798  1
  O  O21  1  0.140290  0.347130  0.703058  1
  O  O22  1  0.143173  0.856792  0.750014  1
  O  O23  1  0.356807  0.356790  0.499999  1
  O  O24  1  0.359719  0.847116  0.546947  1
  O  O25  1  0.325923  0.081739  0.926199  1
  O  O26  1  0.347095  0.140279  0.296940  1
  O  O27  1  0.408946  0.430278  0.165326  1
  O  O28  1  0.418245  0.825930  0.176203  1
  O  O29  1  0.430294  0.408937  0.834676  1
  O  O30  1  0.569716  0.591073  0.334676  1
  O  O31  1  0.581751  0.174071  0.676200  1
  O  O32  1  0.591071  0.569716  0.665322  1
  O  O33  1  0.652897  0.859723  0.796939  1
  O  O34  1  0.674065  0.918262  0.426199  1
  O  O35  1  0.640282  0.152858  0.046941  1
  O  O36  1  0.643207  0.643202  -0.000001  1
  O  O37  1  0.856820  0.143174  0.250002  1
  O  O38  1  0.859720  0.652864  0.203057  1
  O  O39  1  0.825934  0.418260  0.823794  1
  O  O40  1  0.847100  0.359715  0.453060  1
  O  O41  1  0.908942  0.069717  0.584678  1
  O  O42  1  0.918249  0.674068  0.573793  1
  O  O43  1  0.930293  0.091074  0.915323  1
