# generated using pymatgen
data_Y2Hg2O5
_symmetry_space_group_name_H-M   'P 1'
_cell_length_a   11.86287588
_cell_length_b   13.40216006
_cell_length_c   3.57498269
_cell_angle_alpha   90.00000000
_cell_angle_beta   90.00000000
_cell_angle_gamma   90.00000000
_symmetry_Int_Tables_number   1
_chemical_formula_structural   Y2Hg2O5
_chemical_formula_sum   'Y8 Hg8 O20'
_cell_volume   568.37992462
_cell_formula_units_Z   4
loop_
 _symmetry_equiv_pos_site_id
 _symmetry_equiv_pos_as_xyz
  1  'x, y, z'
loop_
 _atom_site_type_symbol
 _atom_site_label
 _atom_site_symmetry_multiplicity
 _atom_site_fract_x
 _atom_site_fract_y
 _atom_site_fract_z
 _atom_site_occupancy
  Y  Y0  1  0.031395  0.330243  0.235921  1
  Y  Y1  1  0.218910  0.997818  0.239568  1
  Y  Y2  1  0.281090  0.497818  0.739568  1
  Y  Y3  1  0.468605  0.830243  0.735921  1
  Y  Y4  1  0.531395  0.330243  0.264079  1
  Y  Y5  1  0.718910  0.997818  0.260432  1
  Y  Y6  1  0.781090  0.497818  0.760432  1
  Y  Y7  1  0.968605  0.830243  0.764079  1
  Hg  Hg8  1  0.003476  0.599166  0.300002  1
  Hg  Hg9  1  0.246104  0.728639  0.199615  1
  Hg  Hg10  1  0.253896  0.228639  0.699615  1
  Hg  Hg11  1  0.496524  0.099166  0.800002  1
  Hg  Hg12  1  0.503476  0.599166  0.199998  1
  Hg  Hg13  1  0.746104  0.728639  0.300385  1
  Hg  Hg14  1  0.753896  0.228639  0.800385  1
  Hg  Hg15  1  0.996524  0.099166  0.699998  1
  O  O16  1  0.062832  0.767052  0.260877  1
  O  O17  1  0.099964  0.953925  0.746267  1
  O  O18  1  0.125344  0.164030  0.237728  1
  O  O19  1  0.149958  0.373793  0.738018  1
  O  O20  1  0.186888  0.560473  0.241772  1
  O  O21  1  0.313112  0.060473  0.741772  1
  O  O22  1  0.350042  0.873793  0.238018  1
  O  O23  1  0.374656  0.664030  0.737728  1
  O  O24  1  0.400036  0.453925  0.246267  1
  O  O25  1  0.437168  0.267052  0.760877  1
  O  O26  1  0.562832  0.767052  0.239123  1
  O  O27  1  0.599964  0.953925  0.753733  1
  O  O28  1  0.625344  0.164030  0.262272  1
  O  O29  1  0.649958  0.373793  0.761982  1
  O  O30  1  0.686888  0.560473  0.258228  1
  O  O31  1  0.813112  0.060473  0.758228  1
  O  O32  1  0.850042  0.873793  0.261982  1
  O  O33  1  0.874656  0.664030  0.762272  1
  O  O34  1  0.900036  0.453925  0.253733  1
  O  O35  1  0.937168  0.267052  0.739123  1
