# generated using pymatgen
data_Y2MoO6
_symmetry_space_group_name_H-M   'P 1'
_cell_length_a   5.42079552
_cell_length_b   9.99010475
_cell_length_c   9.99010252
_cell_angle_alpha   67.99826419
_cell_angle_beta   74.86035638
_cell_angle_gamma   74.86029839
_symmetry_Int_Tables_number   1
_chemical_formula_structural   Y2MoO6
_chemical_formula_sum   'Y8 Mo4 O24'
_cell_volume   476.06628079
_cell_formula_units_Z   4
loop_
 _symmetry_equiv_pos_site_id
 _symmetry_equiv_pos_as_xyz
  1  'x, y, z'
loop_
 _atom_site_type_symbol
 _atom_site_label
 _atom_site_symmetry_multiplicity
 _atom_site_fract_x
 _atom_site_fract_y
 _atom_site_fract_z
 _atom_site_occupancy
  O  O0  1  0.921939  0.572883  0.610117  1
  O  O1  1  0.578062  0.389883  0.427116  1
  O  O2  1  0.078062  0.427117  0.389883  1
  O  O3  1  0.421938  0.610117  0.572883  1
  O  O4  1  0.916981  0.807147  0.336778  1
  O  O5  1  0.583019  0.663223  0.192854  1
  O  O6  1  0.083018  0.192853  0.663223  1
  O  O7  1  0.416979  0.336778  0.807145  1
  O  O8  1  0.367948  0.885263  0.326443  1
  O  O9  1  0.132053  0.673557  0.114737  1
  O  O10  1  0.632051  0.114737  0.673557  1
  O  O11  1  0.867947  0.326443  0.885263  1
  O  O12  1  0.634535  0.288791  0.183257  1
  O  O13  1  0.865465  0.816743  0.711209  1
  O  O14  1  0.365465  0.711208  0.816743  1
  O  O15  1  0.134535  0.183258  0.288791  1
  O  O16  1  0.513975  0.110256  0.048500  1
  O  O17  1  0.986023  0.951500  0.889744  1
  O  O18  1  0.754246  0.024297  0.431205  1
  O  O19  1  0.013976  0.048500  0.110256  1
  O  O20  1  0.254245  0.431205  0.024297  1
  O  O21  1  0.245754  0.975703  0.568794  1
  O  O22  1  0.745755  0.568795  0.975702  1
  O  O23  1  0.486024  0.889744  0.951501  1
  Y  Y24  1  0.750000  0.393308  0.606692  1
  Y  Y25  1  0.250000  0.606692  0.393309  1
  Y  Y26  1  0.750000  0.863716  0.136284  1
  Y  Y27  1  0.249999  0.136284  0.863716  1
  Y  Y28  1  0.378027  0.216281  0.447726  1
  Y  Y29  1  0.121972  0.552274  0.783719  1
  Y  Y30  1  0.878028  0.447726  0.216281  1
  Y  Y31  1  0.621973  0.783719  0.552273  1
  Mo  Mo32  1  0.558976  0.295340  0.012469  1
  Mo  Mo33  1  0.941024  0.987531  0.704660  1
  Mo  Mo34  1  0.441024  0.704660  0.987531  1
  Mo  Mo35  1  0.058976  0.012469  0.295340  1
