# generated using pymatgen
data_Y2Ti2O7
_symmetry_space_group_name_H-M   'P 1'
_cell_length_a   7.36587496
_cell_length_b   15.45005307
_cell_length_c   13.10591285
_cell_angle_alpha   28.54475649
_cell_angle_beta   54.68876864
_cell_angle_gamma   60.18596260
_symmetry_Int_Tables_number   1
_chemical_formula_structural   Y2Ti2O7
_chemical_formula_sum   'Y8 Ti8 O28'
_cell_volume   581.36946237
_cell_formula_units_Z   4
loop_
 _symmetry_equiv_pos_site_id
 _symmetry_equiv_pos_as_xyz
  1  'x, y, z'
loop_
 _atom_site_type_symbol
 _atom_site_label
 _atom_site_symmetry_multiplicity
 _atom_site_fract_x
 _atom_site_fract_y
 _atom_site_fract_z
 _atom_site_occupancy
  Y  Y0  1  0.003050  0.995787  0.009704  1
  Y  Y1  1  0.967294  0.255618  0.498712  1
  Y  Y2  1  0.473898  0.030319  0.480315  1
  Y  Y3  1  0.048527  0.215792  0.026236  1
  Y  Y4  1  0.462641  0.761847  0.001422  1
  Y  Y5  1  0.947628  0.993379  0.535011  1
  Y  Y6  1  0.508864  0.500096  0.506223  1
  Y  Y7  1  0.556333  0.698234  0.547681  1
  Ti  Ti8  1  0.502775  0.945343  0.073178  1
  Ti  Ti9  1  0.976967  0.730733  0.994227  1
  Ti  Ti10  1  0.511755  0.212008  0.032963  1
  Ti  Ti11  1  0.028913  0.475794  0.509884  1
  Ti  Ti12  1  0.412592  0.538273  0.027356  1
  Ti  Ti13  1  0.910529  0.724460  0.601712  1
  Ti  Ti14  1  0.545306  0.279865  0.436244  1
  Ti  Ti15  1  0.075602  0.503367  0.960327  1
  O  O16  1  0.225185  0.036170  0.035143  1
  O  O17  1  0.242338  0.108494  0.250954  1
  O  O18  1  0.655901  0.995014  0.165188  1
  O  O19  1  0.077820  0.995981  0.650697  1
  O  O20  1  0.120993  0.532679  0.073391  1
  O  O21  1  0.670026  0.198771  0.122090  1
  O  O22  1  0.151716  0.275497  0.599136  1
  O  O23  1  0.113176  0.721733  0.207826  1
  O  O24  1  0.370298  0.285178  0.316231  1
  O  O25  1  0.536597  0.516215  0.143835  1
  O  O26  1  0.149283  0.424070  0.646594  1
  O  O27  1  0.849829  0.959465  0.435157  1
  O  O28  1  0.552739  0.033686  0.633387  1
  O  O29  1  0.582361  0.307838  0.530487  1
  O  O30  1  0.868379  0.289868  0.300640  1
  O  O31  1  0.549726  0.794298  0.103775  1
  O  O32  1  0.141742  0.741492  0.659711  1
  O  O33  1  0.414872  0.268797  0.868788  1
  O  O34  1  0.435492  0.738239  0.386298  1
  O  O35  1  0.878549  0.542399  0.308337  1
  O  O36  1  0.355512  0.440387  0.918105  1
  O  O37  1  0.732309  0.458923  0.652731  1
  O  O38  1  0.920423  0.750558  0.440230  1
  O  O39  1  0.586683  0.690074  0.728727  1
  O  O40  1  0.294260  0.751950  0.908998  1
  O  O41  1  0.956724  0.477008  0.886588  1
  O  O42  1  0.826158  0.737500  0.914745  1
  O  O43  1  0.801901  0.042882  0.873375  1
