# generated using pymatgen
data_YTmO3
_symmetry_space_group_name_H-M   'P 1'
_cell_length_a   9.16618041
_cell_length_b   9.16540155
_cell_length_c   9.16540155
_cell_angle_alpha   109.46130426
_cell_angle_beta   109.47029660
_cell_angle_gamma   109.47861813
_symmetry_Int_Tables_number   1
_chemical_formula_structural   YTmO3
_chemical_formula_sum   'Y8 Tm8 O24'
_cell_volume   592.77236393
_cell_formula_units_Z   8
loop_
 _symmetry_equiv_pos_site_id
 _symmetry_equiv_pos_as_xyz
  1  'x, y, z'
loop_
 _atom_site_type_symbol
 _atom_site_label
 _atom_site_symmetry_multiplicity
 _atom_site_fract_x
 _atom_site_fract_y
 _atom_site_fract_z
 _atom_site_occupancy
  Y  Y0  1  0.498351  0.999070  0.999035  1
  Y  Y1  1  0.782417  0.031910  0.749952  1
  Y  Y2  1  0.717583  0.467535  0.249493  1
  Y  Y3  1  0.750000  0.282810  0.532810  1
  Y  Y4  1  0.750000  0.782292  0.032292  1
  Y  Y5  1  0.003052  0.501245  0.001242  1
  Y  Y6  1  0.001649  0.000684  0.500719  1
  Y  Y7  1  0.496948  0.498189  0.498192  1
  Tm  Tm8  1  0.969026  0.250835  0.217880  1
  Tm  Tm9  1  0.464869  0.248856  0.715709  1
  Tm  Tm10  1  0.530974  0.748854  0.281809  1
  Tm  Tm11  1  0.250000  0.717124  0.467124  1
  Tm  Tm12  1  0.250000  0.216597  0.966597  1
  Tm  Tm13  1  0.217493  0.967052  0.249969  1
  Tm  Tm14  1  0.282507  0.532476  0.749558  1
  Tm  Tm15  1  0.035131  0.750840  0.783987  1
  O  O16  1  0.757387  0.027959  0.485929  1
  O  O17  1  0.742613  0.228541  0.270571  1
  O  O18  1  0.270009  0.012001  0.043536  1
  O  O19  1  0.972093  0.511940  0.241820  1
  O  O20  1  0.770260  0.729890  0.261344  1
  O  O21  1  0.464983  0.226138  0.456004  1
  O  O22  1  0.045492  0.271118  0.013760  1
  O  O23  1  0.454508  0.468270  0.225626  1
  O  O24  1  0.015283  0.045811  0.271825  1
  O  O25  1  0.773323  0.546181  0.535103  1
  O  O26  1  0.484717  0.756543  0.030527  1
  O  O27  1  0.726677  0.261780  0.772857  1
  O  O28  1  0.274200  0.743254  0.231708  1
  O  O29  1  0.225800  0.457510  0.469054  1
  O  O30  1  0.992760  0.957340  0.730828  1
  O  O31  1  0.507240  0.238069  0.964580  1
  O  O32  1  0.539405  0.528204  0.769925  1
  O  O33  1  0.960595  0.730519  0.988798  1
  O  O34  1  0.229991  0.273527  0.741992  1
  O  O35  1  0.527907  0.769728  0.539847  1
  O  O36  1  0.729740  0.991083  0.959630  1
  O  O37  1  0.035017  0.491022  0.761156  1
  O  O38  1  0.241754  0.967981  0.510980  1
  O  O39  1  0.258246  0.769226  0.726228  1
