# generated using pymatgen
data_Y2(WO4)3
_symmetry_space_group_name_H-M   'P 1'
_cell_length_a   10.20508566
_cell_length_b   10.28585181
_cell_length_c   14.32335760
_cell_angle_alpha   90.00000000
_cell_angle_beta   90.00000000
_cell_angle_gamma   90.00000000
_symmetry_Int_Tables_number   1
_chemical_formula_structural   Y2(WO4)3
_chemical_formula_sum   'Y8 W12 O48'
_cell_volume   1503.49418347
_cell_formula_units_Z   4
loop_
 _symmetry_equiv_pos_site_id
 _symmetry_equiv_pos_as_xyz
  1  'x, y, z'
loop_
 _atom_site_type_symbol
 _atom_site_label
 _atom_site_symmetry_multiplicity
 _atom_site_fract_x
 _atom_site_fract_y
 _atom_site_fract_z
 _atom_site_occupancy
  O  O0  1  0.856611  0.283489  0.158624  1
  O  O1  1  0.856611  0.216512  0.841376  1
  O  O2  1  0.643389  0.783488  0.341376  1
  O  O3  1  0.643389  0.716511  0.658624  1
  O  O4  1  0.143390  0.716511  0.841376  1
  O  O5  1  0.143390  0.783488  0.158624  1
  O  O6  1  0.356611  0.216512  0.658624  1
  O  O7  1  0.356611  0.283489  0.341376  1
  O  O8  1  0.818751  0.059781  0.033223  1
  O  O9  1  0.818751  0.440219  0.966777  1
  O  O10  1  0.681248  0.559781  0.466777  1
  O  O11  1  0.681248  0.940219  0.533223  1
  O  O12  1  0.181249  0.940219  0.966777  1
  O  O13  1  0.181249  0.559781  0.033223  1
  O  O14  1  0.318752  0.440219  0.533223  1
  O  O15  1  0.318752  0.059781  0.466777  1
  O  O16  1  0.424279  0.660726  0.919357  1
  O  O17  1  0.575721  0.160726  0.919357  1
  O  O18  1  0.924279  0.839274  0.419357  1
  O  O19  1  0.924279  0.660726  0.580643  1
  O  O20  1  0.064874  0.084865  0.140359  1
  O  O21  1  0.064874  0.415135  0.859641  1
  O  O22  1  0.435125  0.584866  0.359641  1
  O  O23  1  0.435125  0.915134  0.640359  1
  O  O24  1  0.935126  0.915134  0.859641  1
  O  O25  1  0.935126  0.584866  0.140359  1
  O  O26  1  0.564874  0.415135  0.640359  1
  O  O27  1  0.564874  0.084865  0.359641  1
  O  O28  1  0.370220  0.138571  0.065345  1
  O  O29  1  0.370220  0.361429  0.934655  1
  O  O30  1  0.129779  0.638571  0.434655  1
  O  O31  1  0.129779  0.861429  0.565345  1
  O  O32  1  0.629780  0.861429  0.934655  1
  O  O33  1  0.629780  0.638571  0.065345  1
  O  O34  1  0.870221  0.361429  0.565345  1
  O  O35  1  0.870221  0.138571  0.434655  1
  O  O36  1  0.316966  0.018486  0.262635  1
  O  O37  1  0.316966  0.481514  0.737364  1
  O  O38  1  0.183034  0.518486  0.237364  1
  O  O39  1  0.183034  0.981514  0.762635  1
  O  O40  1  0.683034  0.981514  0.737364  1
  O  O41  1  0.683034  0.518486  0.262635  1
  O  O42  1  0.816966  0.481514  0.762635  1
  O  O43  1  0.816966  0.018486  0.237364  1
  O  O44  1  0.075721  0.339274  0.419357  1
  O  O45  1  0.075721  0.160726  0.580643  1
  O  O46  1  0.424279  0.839274  0.080643  1
  O  O47  1  0.575721  0.339274  0.080643  1
  Y  Y48  1  0.249600  0.468834  0.382805  1
  Y  Y49  1  0.249600  0.031167  0.617195  1
  Y  Y50  1  0.250400  0.968834  0.117195  1
  Y  Y51  1  0.250400  0.531166  0.882805  1
  Y  Y52  1  0.750401  0.531166  0.617195  1
  Y  Y53  1  0.750401  0.968834  0.382805  1
  Y  Y54  1  0.749600  0.031167  0.882805  1
  Y  Y55  1  0.749600  0.468834  0.117195  1
  W  W56  1  0.027426  0.750000  0.500000  1
  W  W57  1  0.527426  0.750000  0.000000  1
  W  W58  1  0.972574  0.250000  0.500000  1
  W  W59  1  0.472574  0.250000  0.000000  1
  W  W60  1  0.389335  0.111572  0.357076  1
  W  W61  1  0.389335  0.388427  0.642924  1
  W  W62  1  0.110665  0.611572  0.142924  1
  W  W63  1  0.110665  0.888428  0.857076  1
  W  W64  1  0.610665  0.888428  0.642924  1
  W  W65  1  0.610665  0.611572  0.357076  1
  W  W66  1  0.889335  0.388427  0.857076  1
  W  W67  1  0.889335  0.111572  0.142924  1
