# generated using pymatgen
data_Y2WO6
_symmetry_space_group_name_H-M   'P 1'
_cell_length_a   5.29463648
_cell_length_b   9.17595549
_cell_length_c   10.02531335
_cell_angle_alpha   90.00000000
_cell_angle_beta   90.00000000
_cell_angle_gamma   90.00000000
_symmetry_Int_Tables_number   1
_chemical_formula_structural   Y2WO6
_chemical_formula_sum   'Y8 W4 O24'
_cell_volume   487.06329407
_cell_formula_units_Z   4
loop_
 _symmetry_equiv_pos_site_id
 _symmetry_equiv_pos_as_xyz
  1  'x, y, z'
loop_
 _atom_site_type_symbol
 _atom_site_label
 _atom_site_symmetry_multiplicity
 _atom_site_fract_x
 _atom_site_fract_y
 _atom_site_fract_z
 _atom_site_occupancy
  O  O0  1  0.253131  0.088590  0.505733  1
  O  O1  1  0.753131  0.411410  0.494267  1
  O  O2  1  0.746869  0.588591  0.994267  1
  O  O3  1  0.246868  0.911410  0.005733  1
  O  O4  1  0.731692  0.114955  0.568254  1
  O  O5  1  0.231693  0.385044  0.431745  1
  O  O6  1  0.268306  0.614955  0.931746  1
  O  O7  1  0.768308  0.885044  0.068255  1
  O  O8  1  0.586700  0.843104  0.531116  1
  O  O9  1  0.086701  0.656896  0.468884  1
  O  O10  1  0.413299  0.343104  0.968884  1
  O  O11  1  0.913300  0.156896  0.031116  1
  O  O12  1  0.192102  0.859391  0.263811  1
  O  O13  1  0.692102  0.640608  0.736189  1
  O  O14  1  0.807898  0.359392  0.236189  1
  O  O15  1  0.307899  0.140608  0.763811  1
  O  O16  1  0.825925  0.047689  0.298351  1
  O  O17  1  0.325926  0.452311  0.701648  1
  O  O18  1  0.181024  0.862439  0.681032  1
  O  O19  1  0.674075  0.952311  0.798351  1
  O  O20  1  0.318977  0.137562  0.181032  1
  O  O21  1  0.818977  0.362438  0.818968  1
  O  O22  1  0.681024  0.637562  0.318968  1
  O  O23  1  0.174076  0.547689  0.201648  1
  Y  Y24  1  0.480962  0.603293  0.535144  1
  Y  Y25  1  0.980962  0.896706  0.464857  1
  Y  Y26  1  0.519039  0.103293  0.964857  1
  Y  Y27  1  0.019037  0.396706  0.035144  1
  Y  Y28  1  0.961308  0.781026  0.870385  1
  Y  Y29  1  0.461307  0.718974  0.129615  1
  Y  Y30  1  0.538692  0.218974  0.370385  1
  Y  Y31  1  0.038693  0.281026  0.629615  1
  W  W32  1  0.461014  0.995528  0.651581  1
  W  W33  1  0.961016  0.504471  0.348419  1
  W  W34  1  0.538984  0.495528  0.848419  1
  W  W35  1  0.038985  0.004472  0.151581  1
