# generated using pymatgen
data_Y2W2O9
_symmetry_space_group_name_H-M   'P 1'
_cell_length_a   5.49375291
_cell_length_b   5.37801144
_cell_length_c   23.76542050
_cell_angle_alpha   90.00000000
_cell_angle_beta   90.00000000
_cell_angle_gamma   90.00000000
_symmetry_Int_Tables_number   1
_chemical_formula_structural   Y2W2O9
_chemical_formula_sum   'Y8 W8 O36'
_cell_volume   702.16042332
_cell_formula_units_Z   4
loop_
 _symmetry_equiv_pos_site_id
 _symmetry_equiv_pos_as_xyz
  1  'x, y, z'
loop_
 _atom_site_type_symbol
 _atom_site_label
 _atom_site_symmetry_multiplicity
 _atom_site_fract_x
 _atom_site_fract_y
 _atom_site_fract_z
 _atom_site_occupancy
  Y  Y0  1  0.112377  0.473657  0.295935  1
  Y  Y1  1  0.113507  0.973234  0.390740  1
  Y  Y2  1  0.386493  0.473234  0.890740  1
  Y  Y3  1  0.387623  0.973657  0.795935  1
  Y  Y4  1  0.612377  0.026343  0.295935  1
  Y  Y5  1  0.613507  0.526766  0.390740  1
  Y  Y6  1  0.886493  0.026766  0.890740  1
  Y  Y7  1  0.887623  0.526343  0.795935  1
  W  W8  1  0.178472  0.998904  0.171687  1
  W  W9  1  0.188794  0.499327  0.515708  1
  W  W10  1  0.311206  0.999327  0.015708  1
  W  W11  1  0.321528  0.498904  0.671687  1
  W  W12  1  0.678472  0.501096  0.171687  1
  W  W13  1  0.688794  0.000673  0.515708  1
  W  W14  1  0.811206  0.500673  0.015708  1
  W  W15  1  0.821528  0.001096  0.671687  1
  O  O16  1  0.012995  0.210084  0.495659  1
  O  O17  1  0.995123  0.291500  0.691742  1
  O  O18  1  0.127276  0.744488  0.852834  1
  O  O19  1  0.070910  0.300281  0.032778  1
  O  O20  1  0.127853  0.244261  0.833978  1
  O  O21  1  0.082929  0.802585  0.654888  1
  O  O22  1  0.223196  0.115729  0.245062  1
  O  O23  1  0.232399  0.617917  0.442430  1
  O  O24  1  0.254507  0.411397  0.593759  1
  O  O25  1  0.245493  0.911397  0.093759  1
  O  O26  1  0.267601  0.117917  0.942430  1
  O  O27  1  0.276804  0.615729  0.745062  1
  O  O28  1  0.417071  0.302585  0.154888  1
  O  O29  1  0.372147  0.744261  0.333978  1
  O  O30  1  0.429090  0.800281  0.532778  1
  O  O31  1  0.372724  0.244488  0.352834  1
  O  O32  1  0.504877  0.791500  0.191742  1
  O  O33  1  0.487005  0.710084  0.995659  1
  O  O34  1  0.512995  0.289916  0.495659  1
  O  O35  1  0.495123  0.208500  0.691742  1
  O  O36  1  0.627276  0.755512  0.852834  1
  O  O37  1  0.570910  0.199719  0.032778  1
  O  O38  1  0.627853  0.255739  0.833978  1
  O  O39  1  0.582929  0.697415  0.654888  1
  O  O40  1  0.723196  0.384271  0.245062  1
  O  O41  1  0.732399  0.882083  0.442430  1
  O  O42  1  0.754507  0.088603  0.593759  1
  O  O43  1  0.745493  0.588603  0.093759  1
  O  O44  1  0.767601  0.382083  0.942430  1
  O  O45  1  0.776804  0.884271  0.745062  1
  O  O46  1  0.917071  0.197415  0.154888  1
  O  O47  1  0.872147  0.755739  0.333978  1
  O  O48  1  0.929090  0.699719  0.532778  1
  O  O49  1  0.872724  0.255512  0.352834  1
  O  O50  1  0.004877  0.708500  0.191742  1
  O  O51  1  0.987005  0.789916  0.995659  1
