# generated using pymatgen
data_YZrO3
_symmetry_space_group_name_H-M   'P 1'
_cell_length_a   9.05140361
_cell_length_b   9.05700750
_cell_length_c   9.05700750
_cell_angle_alpha   109.87319857
_cell_angle_beta   109.04079383
_cell_angle_gamma   109.52558257
_symmetry_Int_Tables_number   1
_chemical_formula_structural   YZrO3
_chemical_formula_sum   'Y8 Zr8 O24'
_cell_volume   571.35653227
_cell_formula_units_Z   8
loop_
 _symmetry_equiv_pos_site_id
 _symmetry_equiv_pos_as_xyz
  1  'x, y, z'
loop_
 _atom_site_type_symbol
 _atom_site_label
 _atom_site_symmetry_multiplicity
 _atom_site_fract_x
 _atom_site_fract_y
 _atom_site_fract_z
 _atom_site_occupancy
  Y  Y0  1  0.964584  0.246466  0.238742  1
  Y  Y1  1  0.535416  0.774158  0.281882  1
  Y  Y2  1  0.491402  0.271701  0.739109  1
  Y  Y3  1  0.250000  0.722815  0.472815  1
  Y  Y4  1  0.250000  0.226166  0.976166  1
  Y  Y5  1  0.251678  0.511088  0.721797  1
  Y  Y6  1  0.248322  0.970119  0.259410  1
  Y  Y7  1  0.008598  0.747706  0.780299  1
  Zr  Zr8  1  0.489183  0.986337  0.018130  1
  Zr  Zr9  1  0.790905  0.011558  0.762021  1
  Zr  Zr10  1  0.709095  0.471117  0.220654  1
  Zr  Zr11  1  0.750000  0.258320  0.508320  1
  Zr  Zr12  1  0.750000  0.759994  0.009994  1
  Zr  Zr13  1  0.962258  0.483296  0.993890  1
  Zr  Zr14  1  0.537742  0.531632  0.521038  1
  Zr  Zr15  1  0.010817  0.028947  0.497154  1
  O  O16  1  0.003933  0.021918  0.253955  1
  O  O17  1  0.960780  0.507284  0.247488  1
  O  O18  1  0.785592  0.043057  0.515454  1
  O  O19  1  0.714408  0.229862  0.257464  1
  O  O20  1  0.965541  0.722668  0.006880  1
  O  O21  1  0.475634  0.481811  0.238744  1
  O  O22  1  0.493813  0.266475  0.474325  1
  O  O23  1  0.791281  0.749955  0.282947  1
  O  O24  1  0.708719  0.991666  0.958674  1
  O  O25  1  0.775167  0.537026  0.504482  1
  O  O26  1  0.724833  0.229315  0.761859  1
  O  O27  1  0.496067  0.750022  0.017985  1
  O  O28  1  0.255770  0.465507  0.455695  1
  O  O29  1  0.244230  0.699925  0.209737  1
  O  O30  1  0.506715  0.226585  0.975908  1
  O  O31  1  0.539220  0.786708  0.546504  1
  O  O32  1  0.262669  0.009440  0.034558  1
  O  O33  1  0.237331  0.271889  0.746769  1
  O  O34  1  0.534459  0.541340  0.757128  1
  O  O35  1  0.024366  0.263110  0.006176  1
  O  O36  1  0.240964  0.980744  0.513535  1
  O  O37  1  0.259036  0.772571  0.739780  1
  O  O38  1  0.006187  0.480512  0.772662  1
  O  O39  1  0.993285  0.969193  0.719871  1
