# generated using pymatgen
data_Y2Zr2O7
_symmetry_space_group_name_H-M   'P 1'
_cell_length_a   7.89282608
_cell_length_b   13.86062684
_cell_length_c   5.54618933
_cell_angle_alpha   90.00000000
_cell_angle_beta   90.00000000
_cell_angle_gamma   98.44324227
_symmetry_Int_Tables_number   1
_chemical_formula_structural   Y2Zr2O7
_chemical_formula_sum   'Y8 Zr8 O28'
_cell_volume   600.17435102
_cell_formula_units_Z   4
loop_
 _symmetry_equiv_pos_site_id
 _symmetry_equiv_pos_as_xyz
  1  'x, y, z'
loop_
 _atom_site_type_symbol
 _atom_site_label
 _atom_site_symmetry_multiplicity
 _atom_site_fract_x
 _atom_site_fract_y
 _atom_site_fract_z
 _atom_site_occupancy
  Y  Y0  1  0.137546  0.559211  0.326923  1
  Y  Y1  1  0.237251  0.927659  0.779267  1
  Y  Y2  1  0.286704  0.133953  0.243433  1
  Y  Y3  1  0.361802  0.398711  0.759180  1
  Y  Y4  1  0.638198  0.601289  0.259180  1
  Y  Y5  1  0.713296  0.866047  0.743433  1
  Y  Y6  1  0.762749  0.072341  0.279267  1
  Y  Y7  1  0.862454  0.440789  0.826923  1
  Zr  Zr8  1  0.074236  0.319703  0.264964  1
  Zr  Zr9  1  0.026815  0.118578  0.763231  1
  Zr  Zr10  1  0.410658  0.673084  0.776668  1
  Zr  Zr11  1  0.467722  0.874923  0.265050  1
  Zr  Zr12  1  0.532278  0.125077  0.765050  1
  Zr  Zr13  1  0.589342  0.326916  0.276668  1
  Zr  Zr14  1  0.973185  0.881422  0.263231  1
  Zr  Zr15  1  0.925764  0.680297  0.764964  1
  O  O16  1  0.077482  0.416933  0.551255  1
  O  O17  1  0.995999  0.174501  0.420517  1
  O  O18  1  0.169673  0.674087  0.634331  1
  O  O19  1  0.221959  0.883309  0.385075  1
  O  O20  1  0.153977  0.434286  0.043697  1
  O  O21  1  0.074472  0.021559  0.050771  1
  O  O22  1  0.138269  0.229508  0.966592  1
  O  O23  1  0.365661  0.622481  0.110795  1
  O  O24  1  0.415334  0.826838  0.915426  1
  O  O25  1  0.271491  0.084709  0.635488  1
  O  O26  1  0.323493  0.298536  0.402434  1
  O  O27  1  0.422239  0.547548  0.576225  1
  O  O28  1  0.560424  0.976806  0.546568  1
  O  O29  1  0.525509  0.766543  0.474597  1
  O  O30  1  0.474491  0.233457  0.974597  1
  O  O31  1  0.439576  0.023194  0.046568  1
  O  O32  1  0.577761  0.452452  0.076225  1
  O  O33  1  0.676508  0.701464  0.902434  1
  O  O34  1  0.728509  0.915291  0.135488  1
  O  O35  1  0.584666  0.173162  0.415426  1
  O  O36  1  0.634339  0.377519  0.610795  1
  O  O37  1  0.861731  0.770492  0.466592  1
  O  O38  1  0.925528  0.978441  0.550771  1
  O  O39  1  0.846023  0.565714  0.543697  1
  O  O40  1  0.778041  0.116691  0.885075  1
  O  O41  1  0.830327  0.325913  0.134331  1
  O  O42  1  0.004001  0.825499  0.920517  1
  O  O43  1  0.922518  0.583067  0.051255  1
