# generated using pymatgen
data_Yb5Ag3
_symmetry_space_group_name_H-M   'P 1'
_cell_length_a   7.89701907
_cell_length_b   7.89701868
_cell_length_c   9.24356875
_cell_angle_alpha   115.28764070
_cell_angle_beta   115.28763933
_cell_angle_gamma   90.00000280
_symmetry_Int_Tables_number   1
_chemical_formula_structural   Yb5Ag3
_chemical_formula_sum   'Yb10 Ag6'
_cell_volume   459.38278476
_cell_formula_units_Z   2
loop_
 _symmetry_equiv_pos_site_id
 _symmetry_equiv_pos_as_xyz
  1  'x, y, z'
loop_
 _atom_site_type_symbol
 _atom_site_label
 _atom_site_symmetry_multiplicity
 _atom_site_fract_x
 _atom_site_fract_y
 _atom_site_fract_z
 _atom_site_occupancy
  Yb  Yb0  1  0.477488  0.312162  0.289650  1
  Yb  Yb1  1  0.687838  0.187838  0.710350  1
  Yb  Yb2  1  0.187838  0.022512  0.710350  1
  Yb  Yb3  1  0.022512  0.522512  0.710350  1
  Yb  Yb4  1  0.500000  0.500000  0.000000  1
  Yb  Yb5  1  0.812162  0.977488  0.289650  1
  Yb  Yb6  1  0.312162  0.812162  0.289650  1
  Yb  Yb7  1  0.522512  0.687838  0.710350  1
  Yb  Yb8  1  0.977488  0.477488  0.289650  1
  Yb  Yb9  1  0.000000  0.000000  0.000000  1
  Ag  Ag10  1  0.870537  0.629463  1.000000  1
  Ag  Ag11  1  0.750000  0.750000  0.500000  1
  Ag  Ag12  1  0.129463  0.370537  0.000000  1
  Ag  Ag13  1  0.250000  0.250000  0.500000  1
  Ag  Ag14  1  0.629463  0.129463  0.000000  1
  Ag  Ag15  1  0.370537  0.870537  1.000000  1
