# generated using pymatgen
data_Yb10Ti6O27
_symmetry_space_group_name_H-M   'P 1'
_cell_length_a   7.50051921
_cell_length_b   7.34298980
_cell_length_c   14.00835709
_cell_angle_alpha   57.55640701
_cell_angle_beta   64.32785312
_cell_angle_gamma   60.21842888
_symmetry_Int_Tables_number   1
_chemical_formula_structural   Yb10Ti6O27
_chemical_formula_sum   'Yb10 Ti6 O27'
_cell_volume   550.27180355
_cell_formula_units_Z   1
loop_
 _symmetry_equiv_pos_site_id
 _symmetry_equiv_pos_as_xyz
  1  'x, y, z'
loop_
 _atom_site_type_symbol
 _atom_site_label
 _atom_site_symmetry_multiplicity
 _atom_site_fract_x
 _atom_site_fract_y
 _atom_site_fract_z
 _atom_site_occupancy
  Yb  Yb0  1  0.041863  0.988017  0.950543  1
  Yb  Yb1  1  0.569278  0.475006  0.984492  1
  Yb  Yb2  1  0.385814  0.059751  0.245955  1
  Yb  Yb3  1  0.389475  0.545694  0.225596  1
  Yb  Yb4  1  0.917572  0.028658  0.260912  1
  Yb  Yb5  1  0.081049  0.432555  0.018106  1
  Yb  Yb6  1  0.452748  0.510524  0.529078  1
  Yb  Yb7  1  0.488419  0.992459  0.734406  1
  Yb  Yb8  1  0.946949  0.492095  0.268483  1
  Yb  Yb9  1  0.004675  0.033576  0.711624  1
  Ti  Ti10  1  0.502166  0.977786  0.993641  1
  Ti  Ti11  1  0.506559  0.041782  0.475428  1
  Ti  Ti12  1  0.928488  0.969317  0.510382  1
  Ti  Ti13  1  0.410423  0.578483  0.778469  1
  Ti  Ti14  1  0.060439  0.504886  0.469599  1
  Ti  Ti15  1  0.031062  0.485703  0.757186  1
  O  O16  1  0.257274  0.444997  0.140784  1
  O  O17  1  0.045720  0.111279  0.348535  1
  O  O18  1  0.684894  0.065161  0.082589  1
  O  O19  1  0.050405  0.655346  0.316848  1
  O  O20  1  0.358947  0.383159  0.430021  1
  O  O21  1  0.297780  0.967275  0.137971  1
  O  O22  1  0.122112  0.204173  0.753985  1
  O  O23  1  0.115143  0.649715  0.537307  1
  O  O24  1  0.683046  0.604242  0.070076  1
  O  O25  1  0.562218  0.159371  0.299511  1
  O  O26  1  0.773800  0.481012  0.171879  1
  O  O27  1  0.644248  0.149974  0.542935  1
  O  O28  1  0.315011  0.448706  0.723008  1
  O  O29  1  0.472196  0.860374  0.426110  1
  O  O30  1  0.176053  0.727712  0.865267  1
  O  O31  1  0.370407  0.899193  0.634647  1
  O  O32  1  0.418178  0.300210  0.927203  1
  O  O33  1  0.655249  0.495790  0.633772  1
  O  O34  1  0.775502  0.990055  0.899563  1
  O  O35  1  0.833176  0.904516  0.150199  1
  O  O36  1  0.011541  0.248545  0.504768  1
  O  O37  1  0.845304  0.454845  0.635218  1
  O  O38  1  0.618672  0.605768  0.797604  1
  O  O39  1  0.407886  0.886184  0.933472  1
  O  O40  1  0.797091  0.867483  0.459065  1
  O  O41  1  0.908453  0.824354  0.684044  1
  O  O42  1  0.957714  0.369270  0.917217  1
