# generated using pymatgen
data_Yb3Fe5O12
_symmetry_space_group_name_H-M   'P 1'
_cell_length_a   10.76344635
_cell_length_b   10.76344638
_cell_length_c   10.76344662
_cell_angle_alpha   109.47122306
_cell_angle_beta   109.47122305
_cell_angle_gamma   109.47121539
_symmetry_Int_Tables_number   1
_chemical_formula_structural   Yb3Fe5O12
_chemical_formula_sum   'Yb12 Fe20 O48'
_cell_volume   959.91366643
_cell_formula_units_Z   4
loop_
 _symmetry_equiv_pos_site_id
 _symmetry_equiv_pos_as_xyz
  1  'x, y, z'
loop_
 _atom_site_type_symbol
 _atom_site_label
 _atom_site_symmetry_multiplicity
 _atom_site_fract_x
 _atom_site_fract_y
 _atom_site_fract_z
 _atom_site_occupancy
  Yb  Yb0  1  0.375000  0.750000  0.125000  1
  Yb  Yb1  1  0.875000  0.625000  0.250000  1
  Yb  Yb2  1  0.375000  0.125000  0.250000  1
  Yb  Yb3  1  0.625000  0.250000  0.875000  1
  Yb  Yb4  1  0.125000  0.375000  0.750000  1
  Yb  Yb5  1  0.250000  0.875000  0.625000  1
  Yb  Yb6  1  0.875000  0.750000  0.625000  1
  Yb  Yb7  1  0.125000  0.250000  0.375000  1
  Yb  Yb8  1  0.250000  0.375000  0.125000  1
  Yb  Yb9  1  0.625000  0.875000  0.750000  1
  Yb  Yb10  1  0.750000  0.125000  0.375000  1
  Yb  Yb11  1  0.750000  0.625000  0.875000  1
  Fe  Fe12  1  0.000000  0.000000  0.500000  1
  Fe  Fe13  1  0.125000  0.750000  0.875000  1
  Fe  Fe14  1  0.875000  0.125000  0.750000  1
  Fe  Fe15  1  0.500000  0.000000  0.500000  1
  Fe  Fe16  1  0.500000  0.000000  0.000000  1
  Fe  Fe17  1  0.625000  0.750000  0.375000  1
  Fe  Fe18  1  0.000000  0.000000  0.000000  1
  Fe  Fe19  1  0.000000  0.500000  0.000000  1
  Fe  Fe20  1  0.250000  0.625000  0.375000  1
  Fe  Fe21  1  0.000000  0.500000  0.500000  1
  Fe  Fe22  1  0.250000  0.125000  0.875000  1
  Fe  Fe23  1  0.375000  0.250000  0.625000  1
  Fe  Fe24  1  0.875000  0.250000  0.125000  1
  Fe  Fe25  1  0.750000  0.375000  0.625000  1
  Fe  Fe26  1  0.375000  0.625000  0.750000  1
  Fe  Fe27  1  0.500000  0.500000  0.500000  1
  Fe  Fe28  1  0.625000  0.375000  0.250000  1
  Fe  Fe29  1  0.750000  0.875000  0.125000  1
  Fe  Fe30  1  0.500000  0.500000  0.000000  1
  Fe  Fe31  1  0.125000  0.875000  0.250000  1
  O  O32  1  0.676161  0.096996  0.976206  1
  O  O33  1  0.420835  0.823839  0.800045  1
  O  O34  1  0.079165  0.699955  0.676161  1
  O  O35  1  0.800045  0.420835  0.823839  1
  O  O36  1  0.420835  0.096996  0.620790  1
  O  O37  1  0.523794  0.620790  0.699955  1
  O  O38  1  0.596996  0.920835  0.120790  1
  O  O39  1  0.120790  0.023794  0.199955  1
  O  O40  1  0.903004  0.379210  0.579165  1
  O  O41  1  0.920835  0.300045  0.323839  1
  O  O42  1  0.096996  0.620790  0.420835  1
  O  O43  1  0.403004  0.079165  0.879210  1
  O  O44  1  0.596996  0.176161  0.476206  1
  O  O45  1  0.620790  0.420835  0.096996  1
  O  O46  1  0.823839  0.800045  0.420835  1
  O  O47  1  0.023794  0.199955  0.120790  1
  O  O48  1  0.976206  0.676161  0.096996  1
  O  O49  1  0.676161  0.079165  0.699955  1
  O  O50  1  0.379210  0.300045  0.476206  1
  O  O51  1  0.920835  0.120790  0.596996  1
  O  O52  1  0.300045  0.323839  0.920835  1
  O  O53  1  0.323839  0.903004  0.023794  1
  O  O54  1  0.823839  0.523794  0.403004  1
  O  O55  1  0.699955  0.523794  0.620790  1
  O  O56  1  0.323839  0.920835  0.300045  1
  O  O57  1  0.523794  0.403004  0.823839  1
  O  O58  1  0.199955  0.579165  0.176161  1
  O  O59  1  0.800045  0.879210  0.976206  1
  O  O60  1  0.096996  0.976206  0.676161  1
  O  O61  1  0.579165  0.176161  0.199955  1
  O  O62  1  0.120790  0.596996  0.920835  1
  O  O63  1  0.699955  0.676161  0.079165  1
  O  O64  1  0.879210  0.976206  0.800045  1
  O  O65  1  0.300045  0.476206  0.379210  1
  O  O66  1  0.176161  0.199955  0.579165  1
  O  O67  1  0.476206  0.379210  0.300045  1
  O  O68  1  0.620790  0.699955  0.523794  1
  O  O69  1  0.199955  0.120790  0.023794  1
  O  O70  1  0.976206  0.800045  0.879210  1
  O  O71  1  0.379210  0.579165  0.903004  1
  O  O72  1  0.079165  0.879210  0.403004  1
  O  O73  1  0.879210  0.403004  0.079165  1
  O  O74  1  0.903004  0.023794  0.323839  1
  O  O75  1  0.403004  0.823839  0.523794  1
  O  O76  1  0.476206  0.596996  0.176161  1
  O  O77  1  0.579165  0.903004  0.379210  1
  O  O78  1  0.023794  0.323839  0.903004  1
  O  O79  1  0.176161  0.476206  0.596996  1
