# generated using pymatgen
data_Yb7Au3
_symmetry_space_group_name_H-M   'P 1'
_cell_length_a   6.49259021
_cell_length_b   10.34290948
_cell_length_c   10.34290948
_cell_angle_alpha   119.98529329
_cell_angle_beta   90.00000000
_cell_angle_gamma   90.00000000
_symmetry_Int_Tables_number   1
_chemical_formula_structural   Yb7Au3
_chemical_formula_sum   'Yb14 Au6'
_cell_volume   601.58695865
_cell_formula_units_Z   2
loop_
 _symmetry_equiv_pos_site_id
 _symmetry_equiv_pos_as_xyz
  1  'x, y, z'
loop_
 _atom_site_type_symbol
 _atom_site_label
 _atom_site_symmetry_multiplicity
 _atom_site_fract_x
 _atom_site_fract_y
 _atom_site_fract_z
 _atom_site_occupancy
  Yb  Yb0  1  0.719728  0.333310  0.666690  1
  Yb  Yb1  1  0.219728  0.666690  0.333310  1
  Yb  Yb2  1  0.500921  0.126392  0.873608  1
  Yb  Yb3  1  0.500875  0.747224  0.873615  1
  Yb  Yb4  1  0.500875  0.126385  0.252776  1
  Yb  Yb5  1  0.000921  0.873608  0.126392  1
  Yb  Yb6  1  0.000875  0.252776  0.126385  1
  Yb  Yb7  1  0.000875  0.873615  0.747224  1
  Yb  Yb8  1  0.705511  0.540248  0.459752  1
  Yb  Yb9  1  0.705632  0.919473  0.459728  1
  Yb  Yb10  1  0.705632  0.540272  0.080527  1
  Yb  Yb11  1  0.205511  0.459752  0.540248  1
  Yb  Yb12  1  0.205632  0.080527  0.540272  1
  Yb  Yb13  1  0.205632  0.459728  0.919473  1
  Au  Au14  1  0.439685  0.811705  0.188295  1
  Au  Au15  1  0.439570  0.376571  0.188296  1
  Au  Au16  1  0.439570  0.811704  0.623429  1
  Au  Au17  1  0.939685  0.188295  0.811705  1
  Au  Au18  1  0.939570  0.623429  0.811704  1
  Au  Au19  1  0.939570  0.188296  0.376571  1
