# generated using pymatgen
data_Yb14Ti10O41
_symmetry_space_group_name_H-M   'P 1'
_cell_length_a   7.13975346
_cell_length_b   7.14642377
_cell_length_c   21.79584412
_cell_angle_alpha   61.54956005
_cell_angle_beta   61.60168851
_cell_angle_gamma   63.26244422
_symmetry_Int_Tables_number   1
_chemical_formula_structural   Yb14Ti10O41
_chemical_formula_sum   'Yb14 Ti10 O41'
_cell_volume   823.49106251
_cell_formula_units_Z   1
loop_
 _symmetry_equiv_pos_site_id
 _symmetry_equiv_pos_as_xyz
  1  'x, y, z'
loop_
 _atom_site_type_symbol
 _atom_site_label
 _atom_site_symmetry_multiplicity
 _atom_site_fract_x
 _atom_site_fract_y
 _atom_site_fract_z
 _atom_site_occupancy
  Yb  Yb0  1  0.983637  0.983781  0.981897  1
  Yb  Yb1  1  0.470104  0.959824  0.183482  1
  Yb  Yb2  1  0.506215  0.506341  0.982253  1
  Yb  Yb3  1  0.510067  0.510030  0.158574  1
  Yb  Yb4  1  0.983208  0.984147  0.665711  1
  Yb  Yb5  1  0.960731  0.526098  0.507314  1
  Yb  Yb6  1  0.986600  0.986850  0.169669  1
  Yb  Yb7  1  0.524127  0.960780  0.506365  1
  Yb  Yb8  1  0.506937  0.507226  0.338443  1
  Yb  Yb9  1  0.493740  0.491297  0.510780  1
  Yb  Yb10  1  0.959701  0.470298  0.183466  1
  Yb  Yb11  1  0.022809  0.517274  0.832289  1
  Yb  Yb12  1  0.517215  0.022832  0.832301  1
  Yb  Yb13  1  0.490232  0.491150  0.671914  1
  Ti  Ti14  1  0.483526  0.972933  0.000232  1
  Ti  Ti15  1  0.016961  0.017005  0.332735  1
  Ti  Ti16  1  0.486320  0.031171  0.319853  1
  Ti  Ti17  1  0.972944  0.483478  0.000285  1
  Ti  Ti18  1  0.015387  0.493176  0.657956  1
  Ti  Ti19  1  0.493142  0.014701  0.657509  1
  Ti  Ti20  1  0.016290  0.013569  0.482291  1
  Ti  Ti21  1  0.031724  0.486401  0.319698  1
  Ti  Ti22  1  0.578828  0.579187  0.788994  1
  Ti  Ti23  1  0.008148  0.008147  0.835223  1
  O  O24  1  0.087432  0.087842  0.232105  1
  O  O25  1  0.114425  0.600122  0.054814  1
  O  O26  1  0.119826  0.602817  0.219392  1
  O  O27  1  0.155657  0.155444  0.369084  1
  O  O28  1  0.600134  0.114297  0.054787  1
  O  O29  1  0.154984  0.157892  0.529128  1
  O  O30  1  0.372043  0.371598  0.302711  1
  O  O31  1  0.360203  0.911472  0.106255  1
  O  O32  1  0.034364  0.681202  0.358999  1
  O  O33  1  0.655989  0.656083  0.028703  1
  O  O34  1  0.602624  0.119705  0.219480  1
  O  O35  1  0.911464  0.360233  0.106305  1
  O  O36  1  0.598952  0.599216  0.220954  1
  O  O37  1  0.078902  0.704929  0.557256  1
  O  O38  1  0.335826  0.862185  0.317371  1
  O  O39  1  0.680987  0.034217  0.359100  1
  O  O40  1  0.313676  0.313911  0.630731  1
  O  O41  1  0.335480  0.868215  0.462731  1
  O  O42  1  0.142673  0.142821  0.851555  1
  O  O43  1  0.097102  0.598322  0.707902  1
  O  O44  1  0.710033  0.708833  0.343236  1
  O  O45  1  0.705076  0.078960  0.557088  1
  O  O46  1  0.870927  0.871021  0.112566  1
  O  O47  1  0.862168  0.335930  0.317425  1
  O  O48  1  0.873578  0.333450  0.463719  1
  O  O49  1  0.610188  0.610524  0.550907  1
  O  O50  1  0.057487  0.728511  0.916751  1
  O  O51  1  0.357179  0.898674  0.633614  1
  O  O52  1  0.419086  0.419149  0.802135  1
  O  O53  1  0.597347  0.097244  0.707894  1
  O  O54  1  0.292998  0.293023  0.987405  1
  O  O55  1  0.333058  0.880022  0.768693  1
  O  O56  1  0.705879  0.705986  0.683522  1
  O  O57  1  0.896587  0.358280  0.634373  1
  O  O58  1  0.907135  0.908080  0.447434  1
  O  O59  1  0.728625  0.057216  0.916747  1
  O  O60  1  0.879943  0.332925  0.768888  1
  O  O61  1  0.623128  0.623152  0.856940  1
  O  O62  1  0.354725  0.902487  0.962773  1
  O  O63  1  0.916244  0.916476  0.788116  1
  O  O64  1  0.902268  0.354830  0.962840  1
