# generated using pymatgen
data_Yb2TiO5
_symmetry_space_group_name_H-M   'P 1'
_cell_length_a   7.37866515
_cell_length_b   7.37866512
_cell_length_c   22.73897255
_cell_angle_alpha   58.04172232
_cell_angle_beta   58.04172246
_cell_angle_gamma   59.34788769
_symmetry_Int_Tables_number   1
_chemical_formula_structural   Yb2TiO5
_chemical_formula_sum   'Yb16 Ti8 O40'
_cell_volume   844.59940181
_cell_formula_units_Z   8
loop_
 _symmetry_equiv_pos_site_id
 _symmetry_equiv_pos_as_xyz
  1  'x, y, z'
loop_
 _atom_site_type_symbol
 _atom_site_label
 _atom_site_symmetry_multiplicity
 _atom_site_fract_x
 _atom_site_fract_y
 _atom_site_fract_z
 _atom_site_occupancy
  Yb  Yb0  1  0.984802  0.984802  0.998494  1
  Yb  Yb1  1  0.996213  0.996213  0.166163  1
  Yb  Yb2  1  0.490170  0.990049  0.995678  1
  Yb  Yb3  1  0.014107  0.014107  0.340465  1
  Yb  Yb4  1  0.984140  0.507458  0.168007  1
  Yb  Yb5  1  0.507458  0.984140  0.168007  1
  Yb  Yb6  1  0.998152  0.998152  0.511154  1
  Yb  Yb7  1  0.530522  0.988063  0.338333  1
  Yb  Yb8  1  0.995799  0.516497  0.505852  1
  Yb  Yb9  1  0.990049  0.490170  0.995678  1
  Yb  Yb10  1  0.516497  0.995799  0.505852  1
  Yb  Yb11  1  0.004274  0.466817  0.672530  1
  Yb  Yb12  1  0.466817  0.004274  0.672530  1
  Yb  Yb13  1  0.002138  0.480802  0.831224  1
  Yb  Yb14  1  0.988063  0.530522  0.338333  1
  Yb  Yb15  1  0.480802  0.002138  0.831224  1
  Ti  Ti16  1  0.497985  0.497985  0.964857  1
  Ti  Ti17  1  0.035250  0.035250  0.654311  1
  Ti  Ti18  1  0.490845  0.490845  0.183415  1
  Ti  Ti19  1  0.031845  0.031845  0.822106  1
  Ti  Ti20  1  0.460314  0.460314  0.328600  1
  Ti  Ti21  1  0.501966  0.501966  0.534376  1
  Ti  Ti22  1  0.518153  0.518153  0.670562  1
  Ti  Ti23  1  0.540558  0.540558  0.813439  1
  O  O24  1  0.097952  0.097952  0.221174  1
  O  O25  1  0.178955  0.585359  0.026738  1
  O  O26  1  0.178108  0.600423  0.202329  1
  O  O27  1  0.585359  0.178955  0.026738  1
  O  O28  1  0.380399  0.875846  0.119909  1
  O  O29  1  0.335823  0.335823  0.306576  1
  O  O30  1  0.165416  0.595870  0.379121  1
  O  O31  1  0.120960  0.120960  0.554176  1
  O  O32  1  0.600423  0.178108  0.202329  1
  O  O33  1  0.607590  0.607590  0.071799  1
  O  O34  1  0.875846  0.380399  0.119909  1
  O  O35  1  0.412102  0.864794  0.298596  1
  O  O36  1  0.185077  0.585541  0.546963  1
  O  O37  1  0.587201  0.587201  0.221453  1
  O  O38  1  0.595870  0.165416  0.379121  1
  O  O39  1  0.100044  0.100044  0.874232  1
  O  O40  1  0.383704  0.383704  0.653625  1
  O  O41  1  0.395528  0.809660  0.462841  1
  O  O42  1  0.960283  0.755077  0.706652  1
  O  O43  1  0.864794  0.412102  0.298596  1
  O  O44  1  0.892060  0.892060  0.116827  1
  O  O45  1  0.585541  0.185077  0.546963  1
  O  O46  1  0.626726  0.626726  0.329133  1
  O  O47  1  0.953904  0.749694  0.883214  1
  O  O48  1  0.353939  0.834180  0.641249  1
  O  O49  1  0.809660  0.395528  0.462841  1
  O  O50  1  0.393177  0.393177  0.775740  1
  O  O51  1  0.625769  0.625769  0.550177  1
  O  O52  1  0.755077  0.960283  0.706652  1
  O  O53  1  0.380863  0.380863  0.921421  1
  O  O54  1  0.347350  0.848472  0.798190  1
  O  O55  1  0.834180  0.353939  0.641249  1
  O  O56  1  0.749694  0.953904  0.883214  1
  O  O57  1  0.902098  0.902098  0.458763  1
  O  O58  1  0.639218  0.639218  0.707498  1
  O  O59  1  0.387209  0.814828  0.964149  1
  O  O60  1  0.848472  0.347350  0.798190  1
  O  O61  1  0.628044  0.628044  0.861423  1
  O  O62  1  0.814828  0.387209  0.964149  1
  O  O63  1  0.083840  0.083840  0.721556  1
