# generated using pymatgen
data_Yb4Zr3O12
_symmetry_space_group_name_H-M   'P 1'
_cell_length_a   6.45283447
_cell_length_b   6.39667558
_cell_length_c   25.81742975
_cell_angle_alpha   98.55053609
_cell_angle_beta   98.92251600
_cell_angle_gamma   100.07098390
_symmetry_Int_Tables_number   1
_chemical_formula_structural   Yb4Zr3O12
_chemical_formula_sum   'Yb16 Zr12 O48'
_cell_volume   1019.47012174
_cell_formula_units_Z   4
loop_
 _symmetry_equiv_pos_site_id
 _symmetry_equiv_pos_as_xyz
  1  'x, y, z'
loop_
 _atom_site_type_symbol
 _atom_site_label
 _atom_site_symmetry_multiplicity
 _atom_site_fract_x
 _atom_site_fract_y
 _atom_site_fract_z
 _atom_site_occupancy
  O  O0  1  0.055097  0.683361  0.992119  1
  O  O1  1  0.090536  0.952160  0.829977  1
  O  O2  1  0.051323  0.676596  0.739895  1
  O  O3  1  0.181881  0.429752  0.888163  1
  O  O4  1  0.090247  0.951178  0.579935  1
  O  O5  1  0.051655  0.675395  0.489691  1
  O  O6  1  0.315239  0.058721  0.982394  1
  O  O7  1  0.182827  0.429079  0.637788  1
  O  O8  1  0.393326  0.829015  0.889213  1
  O  O9  1  0.069098  0.935173  0.330614  1
  O  O10  1  0.075082  0.665064  0.236212  1
  O  O11  1  0.314661  0.058531  0.732666  1
  O  O12  1  0.426049  0.581358  0.797180  1
  O  O13  1  0.179306  0.422932  0.386018  1
  O  O14  1  0.394522  0.829940  0.639063  1
  O  O15  1  0.105358  0.960863  0.081561  1
  O  O16  1  0.533922  0.393330  0.949616  1
  O  O17  1  0.312321  0.056532  0.482153  1
  O  O18  1  0.426116  0.579787  0.546997  1
  O  O19  1  0.551955  0.178294  0.863587  1
  O  O20  1  0.193324  0.430918  0.141075  1
  O  O21  1  0.392378  0.829089  0.389015  1
  O  O22  1  0.533906  0.393881  0.700042  1
  O  O23  1  0.693247  0.940927  0.764368  1
  O  O24  1  0.339968  0.043720  0.230380  1
  O  O25  1  0.422585  0.591358  0.294260  1
  O  O26  1  0.550430  0.174405  0.612862  1
  O  O27  1  0.848280  0.563587  0.853167  1
  O  O28  1  0.394238  0.808515  0.143011  1
  O  O29  1  0.529176  0.389636  0.449175  1
  O  O30  1  0.692367  0.938943  0.514230  1
  O  O31  1  0.420782  0.575560  0.047007  1
  O  O32  1  0.950139  0.064267  0.922141  1
  O  O33  1  0.543924  0.176017  0.361508  1
  O  O34  1  0.847171  0.561134  0.602317  1
  O  O35  1  0.541425  0.428947  0.203147  1
  O  O36  1  0.652319  0.931561  0.258532  1
  O  O37  1  0.972223  0.325714  0.771202  1
  O  O38  1  0.951720  0.062561  0.672022  1
  O  O39  1  0.564465  0.169950  0.111997  1
  O  O40  1  0.843693  0.561740  0.353433  1
  O  O41  1  0.695274  0.932259  0.014153  1
  O  O42  1  0.972050  0.325046  0.521310  1
  O  O43  1  0.947255  0.063161  0.422337  1
  O  O44  1  0.845398  0.571153  0.101447  1
  O  O45  1  0.957839  0.352600  0.264422  1
  O  O46  1  0.977997  0.064677  0.164082  1
  O  O47  1  0.972091  0.324055  0.022719  1
  Yb  Yb48  1  0.392761  0.705102  0.967835  1
  Yb  Yb49  1  0.393256  0.704954  0.717484  1
  Yb  Yb50  1  1.001580  0.005523  0.248937  1
  Yb  Yb51  1  0.393001  0.703508  0.467304  1
  Yb  Yb52  1  0.704305  0.862421  0.849056  1
  Yb  Yb53  1  0.608561  0.299338  0.785269  1
  Yb  Yb54  1  0.704932  0.860717  0.598862  1
  Yb  Yb55  1  0.863051  0.397848  0.926476  1
  Yb  Yb56  1  0.606616  0.296484  0.534734  1
  Yb  Yb57  1  0.700477  0.863407  0.348772  1
  Yb  Yb58  1  0.859985  0.393241  0.675079  1
  Yb  Yb59  1  0.607161  0.316237  0.285773  1
  Yb  Yb60  1  0.690462  0.856816  0.098308  1
  Yb  Yb61  1  0.857573  0.393138  0.425310  1
  Yb  Yb62  1  0.609236  0.296293  0.035499  1
  Yb  Yb63  1  0.854242  0.390760  0.171260  1
  Zr  Zr64  1  0.145071  0.623495  0.824117  1
  Zr  Zr65  1  0.996965  0.999227  0.750064  1
  Zr  Zr66  1  0.145722  0.622873  0.574017  1
  Zr  Zr67  1  0.995883  0.998057  0.500149  1
  Zr  Zr68  1  0.284166  0.132387  0.905107  1
  Zr  Zr69  1  0.138742  0.624901  0.325213  1
  Zr  Zr70  1  0.284336  0.133133  0.655118  1
  Zr  Zr71  1  0.140556  0.617199  0.075021  1
  Zr  Zr72  1  0.994919  0.003754  0.999502  1
  Zr  Zr73  1  0.277802  0.126093  0.404114  1
  Zr  Zr74  1  0.385694  0.689320  0.217801  1
  Zr  Zr75  1  0.316759  0.141333  0.153618  1
