# generated using pymatgen
data_YbMn4(CuO4)3
_symmetry_space_group_name_H-M   'P 1'
_cell_length_a   6.38481655
_cell_length_b   6.38482124
_cell_length_c   6.38480246
_cell_angle_alpha   109.46247409
_cell_angle_beta   109.47200009
_cell_angle_gamma   109.47987989
_symmetry_Int_Tables_number   1
_chemical_formula_structural   YbMn4(CuO4)3
_chemical_formula_sum   'Yb1 Mn4 Cu3 O12'
_cell_volume   200.36369068
_cell_formula_units_Z   1
loop_
 _symmetry_equiv_pos_site_id
 _symmetry_equiv_pos_as_xyz
  1  'x, y, z'
loop_
 _atom_site_type_symbol
 _atom_site_label
 _atom_site_symmetry_multiplicity
 _atom_site_fract_x
 _atom_site_fract_y
 _atom_site_fract_z
 _atom_site_occupancy
  Yb  Yb0  1  -0.000000  -0.000001  -0.000001  1
  Mn  Mn1  1  0.000003  0.000001  0.500002  1
  Mn  Mn2  1  0.499999  -0.000002  -0.000003  1
  Mn  Mn3  1  0.500002  0.500004  0.500003  1
  Mn  Mn4  1  -0.000001  0.500001  -0.000000  1
  Cu  Cu5  1  0.500000  0.000001  0.499999  1
  Cu  Cu6  1  0.499998  0.499998  1.000000  1
  Cu  Cu7  1  0.000003  0.500004  0.499999  1
  O  O8  1  0.136326  0.829200  0.307127  1
  O  O9  1  0.170788  0.307209  0.477996  1
  O  O10  1  0.170788  0.692789  0.863579  1
  O  O11  1  0.863673  0.170800  0.692874  1
  O  O12  1  0.477925  0.170798  0.307127  1
  O  O13  1  0.692827  0.863640  0.170814  1
  O  O14  1  0.692824  0.522013  0.829185  1
  O  O15  1  0.829212  0.692790  0.522004  1
  O  O16  1  0.829212  0.307208  0.136422  1
  O  O17  1  0.522074  0.829200  0.692874  1
  O  O18  1  0.307174  0.477987  0.170814  1
  O  O19  1  0.307173  0.136360  0.829186  1
