# generated using pymatgen
data_YbAg2
_symmetry_space_group_name_H-M   'P 1'
_cell_length_a   4.70448291
_cell_length_b   5.94179142
_cell_length_c   5.94179155
_cell_angle_alpha   74.53621854
_cell_angle_beta   66.67907428
_cell_angle_gamma   66.67907359
_symmetry_Int_Tables_number   1
_chemical_formula_structural   YbAg2
_chemical_formula_sum   'Yb2 Ag4'
_cell_volume   138.86643901
_cell_formula_units_Z   2
loop_
 _symmetry_equiv_pos_site_id
 _symmetry_equiv_pos_as_xyz
  1  'x, y, z'
loop_
 _atom_site_type_symbol
 _atom_site_label
 _atom_site_symmetry_multiplicity
 _atom_site_fract_x
 _atom_site_fract_y
 _atom_site_fract_z
 _atom_site_occupancy
  Yb  Yb0  1  0.543015  0.706985  0.206985  1
  Yb  Yb1  1  0.456985  0.293015  0.793015  1
  Ag  Ag2  1  0.837526  0.115179  0.209768  1
  Ag  Ag3  1  0.162473  0.290231  0.384821  1
  Ag  Ag4  1  0.162473  0.884821  0.790231  1
  Ag  Ag5  1  0.837526  0.709769  0.615179  1
