# generated using pymatgen
data_YbAu3
_symmetry_space_group_name_H-M   'P 1'
_cell_length_a   6.07089758
_cell_length_b   6.07089599
_cell_length_c   5.00719433
_cell_angle_alpha   90.00000000
_cell_angle_beta   90.00000000
_cell_angle_gamma   119.99999147
_symmetry_Int_Tables_number   1
_chemical_formula_structural   YbAu3
_chemical_formula_sum   'Yb2 Au6'
_cell_volume   159.81988522
_cell_formula_units_Z   2
loop_
 _symmetry_equiv_pos_site_id
 _symmetry_equiv_pos_as_xyz
  1  'x, y, z'
loop_
 _atom_site_type_symbol
 _atom_site_label
 _atom_site_symmetry_multiplicity
 _atom_site_fract_x
 _atom_site_fract_y
 _atom_site_fract_z
 _atom_site_occupancy
  Yb  Yb0  1  0.333333  0.666666  0.750001  1
  Yb  Yb1  1  0.666667  0.333333  0.250001  1
  Au  Au2  1  0.164574  0.329148  0.250001  1
  Au  Au3  1  0.670853  0.835427  0.250001  1
  Au  Au4  1  0.164574  0.835427  0.250001  1
  Au  Au5  1  0.835426  0.670854  0.750001  1
  Au  Au6  1  0.329146  0.164573  0.750001  1
  Au  Au7  1  0.835425  0.164573  0.750001  1
