# generated using pymatgen
data_Cr2B2Ir
_symmetry_space_group_name_H-M   'P 1'
_cell_length_a   2.88976875
_cell_length_b   5.24962445
_cell_length_c   13.46289760
_cell_angle_alpha   90.00000000
_cell_angle_beta   90.00000000
_cell_angle_gamma   105.97606446
_symmetry_Int_Tables_number   1
_chemical_formula_structural   Cr2B2Ir
_chemical_formula_sum   'Cr8 B8 Ir4'
_cell_volume   196.34664664
_cell_formula_units_Z   4
loop_
 _symmetry_equiv_pos_site_id
 _symmetry_equiv_pos_as_xyz
  1  'x, y, z'
loop_
 _atom_site_type_symbol
 _atom_site_label
 _atom_site_symmetry_multiplicity
 _atom_site_fract_x
 _atom_site_fract_y
 _atom_site_fract_z
 _atom_site_occupancy
  Cr  Cr0  1  0.174717  0.349434  0.941508  1
  Cr  Cr1  1  0.998382  0.996764  0.750000  1
  Cr  Cr2  1  0.001618  0.003236  0.250000  1
  Cr  Cr3  1  0.731236  0.462473  0.250000  1
  Cr  Cr4  1  0.268764  0.537527  0.750000  1
  Cr  Cr5  1  0.825283  0.650566  0.058492  1
  Cr  Cr6  1  0.825283  0.650566  0.441508  1
  Cr  Cr7  1  0.174717  0.349434  0.558492  1
  B  B8  1  0.201869  0.403738  0.369720  1
  B  B9  1  0.201869  0.403738  0.130280  1
  B  B10  1  0.798131  0.596262  0.630280  1
  B  B11  1  0.364825  0.729650  0.318327  1
  B  B12  1  0.635175  0.270350  0.681673  1
  B  B13  1  0.364825  0.729650  0.181673  1
  B  B14  1  0.798131  0.596262  0.869720  1
  B  B15  1  0.635175  0.270350  0.818327  1
  Ir  Ir16  1  0.556146  0.112293  0.411004  1
  Ir  Ir17  1  0.556146  0.112293  0.088996  1
  Ir  Ir18  1  0.443854  0.887707  0.911004  1
  Ir  Ir19  1  0.443854  0.887707  0.588996  1
