# generated using pymatgen
data_Yb2Cr2C3
_symmetry_space_group_name_H-M   'P 1'
_cell_length_a   5.39657476
_cell_length_b   5.39826463
_cell_length_c   5.54121537
_cell_angle_alpha   75.32953288
_cell_angle_beta   104.70153595
_cell_angle_gamma   141.57414570
_symmetry_Int_Tables_number   1
_chemical_formula_structural   Yb2Cr2C3
_chemical_formula_sum   'Yb2 Cr2 C3'
_cell_volume   96.64399160
_cell_formula_units_Z   1
loop_
 _symmetry_equiv_pos_site_id
 _symmetry_equiv_pos_as_xyz
  1  'x, y, z'
loop_
 _atom_site_type_symbol
 _atom_site_label
 _atom_site_symmetry_multiplicity
 _atom_site_fract_x
 _atom_site_fract_y
 _atom_site_fract_z
 _atom_site_occupancy
  Yb  Yb0  1  0.400778  0.598879  0.184974  1
  Yb  Yb1  1  0.599205  0.401129  0.815016  1
  Cr  Cr2  1  0.158543  0.841718  0.402552  1
  Cr  Cr3  1  0.841487  0.158250  0.597474  1
  C  C4  1  0.999972  0.000020  0.500008  1
  C  C5  1  0.689240  0.310689  0.293294  1
  C  C6  1  0.310765  0.689308  0.706684  1
