# generated using pymatgen
data_YbCu(WO4)2
_symmetry_space_group_name_H-M   'P 1'
_cell_length_a   5.06220712
_cell_length_b   6.03456724
_cell_length_c   9.87378538
_cell_angle_alpha   90.00000000
_cell_angle_beta   93.31847289
_cell_angle_gamma   90.00000000
_symmetry_Int_Tables_number   1
_chemical_formula_structural   YbCu(WO4)2
_chemical_formula_sum   'Yb2 Cu2 W4 O16'
_cell_volume   301.12089305
_cell_formula_units_Z   2
loop_
 _symmetry_equiv_pos_site_id
 _symmetry_equiv_pos_as_xyz
  1  'x, y, z'
loop_
 _atom_site_type_symbol
 _atom_site_label
 _atom_site_symmetry_multiplicity
 _atom_site_fract_x
 _atom_site_fract_y
 _atom_site_fract_z
 _atom_site_occupancy
  O  O0  1  0.424227  0.338983  0.141254  1
  O  O1  1  0.075773  0.338983  0.358746  1
  O  O2  1  0.575773  0.661017  0.858746  1
  O  O3  1  0.924227  0.661017  0.641254  1
  O  O4  1  0.441442  0.908979  0.606574  1
  O  O5  1  0.058558  0.908979  0.893426  1
  O  O6  1  0.558558  0.091021  0.393426  1
  O  O7  1  0.941442  0.091021  0.106574  1
  O  O8  1  0.882663  0.620355  0.107590  1
  O  O9  1  0.617337  0.620355  0.392410  1
  O  O10  1  0.117337  0.379645  0.892410  1
  O  O11  1  0.382663  0.379645  0.607590  1
  O  O12  1  0.944173  0.112099  0.601328  1
  O  O13  1  0.555827  0.112099  0.898672  1
  O  O14  1  0.055827  0.887901  0.398672  1
  O  O15  1  0.444173  0.887901  0.101328  1
  Cu  Cu16  1  0.250000  0.716835  0.750000  1
  Cu  Cu17  1  0.750000  0.283165  0.250000  1
  Yb  Yb18  1  0.750000  0.344861  0.750000  1
  Yb  Yb19  1  0.250000  0.655139  0.250000  1
  W  W20  1  0.255316  0.167444  0.004640  1
  W  W21  1  0.744684  0.832556  0.995360  1
  W  W22  1  0.244684  0.167444  0.495360  1
  W  W23  1  0.755316  0.832556  0.504640  1
