# generated using pymatgen
data_YbCu2(MoO4)3
_symmetry_space_group_name_H-M   'P 1'
_cell_length_a   5.12113460
_cell_length_b   8.82135886
_cell_length_c   11.15540980
_cell_angle_alpha   90.00000000
_cell_angle_beta   90.00000000
_cell_angle_gamma   93.64298951
_symmetry_Int_Tables_number   1
_chemical_formula_structural   YbCu2(MoO4)3
_chemical_formula_sum   'Yb2 Cu4 Mo6 O24'
_cell_volume   502.93140773
_cell_formula_units_Z   2
loop_
 _symmetry_equiv_pos_site_id
 _symmetry_equiv_pos_as_xyz
  1  'x, y, z'
loop_
 _atom_site_type_symbol
 _atom_site_label
 _atom_site_symmetry_multiplicity
 _atom_site_fract_x
 _atom_site_fract_y
 _atom_site_fract_z
 _atom_site_occupancy
  Yb  Yb0  1  0.703654  0.049336  0.750000  1
  Yb  Yb1  1  0.296346  0.950664  0.250000  1
  Cu  Cu2  1  0.736502  0.444993  0.578685  1
  Cu  Cu3  1  0.736502  0.444993  0.921315  1
  Cu  Cu4  1  0.263498  0.555007  0.078685  1
  Cu  Cu5  1  0.263498  0.555007  0.421315  1
  Mo  Mo6  1  0.818572  0.801671  0.026320  1
  Mo  Mo7  1  0.277247  0.612003  0.750000  1
  Mo  Mo8  1  0.722754  0.387997  0.250000  1
  Mo  Mo9  1  0.181428  0.198329  0.526320  1
  Mo  Mo10  1  0.181428  0.198329  0.973680  1
  Mo  Mo11  1  0.818572  0.801671  0.473680  1
  O  O12  1  0.420298  0.796803  0.750000  1
  O  O13  1  0.891859  0.249350  0.612745  1
  O  O14  1  0.579702  0.203197  0.250000  1
  O  O15  1  0.067476  0.578700  0.882361  1
  O  O16  1  0.409500  0.363882  0.486866  1
  O  O17  1  0.932524  0.421300  0.117639  1
  O  O18  1  0.627221  0.907242  0.379561  1
  O  O19  1  0.894671  0.910099  0.896069  1
  O  O20  1  0.108141  0.750650  0.387255  1
  O  O21  1  0.590500  0.636118  0.513134  1
  O  O22  1  0.372779  0.092758  0.879561  1
  O  O23  1  0.463689  0.523519  0.250000  1
  O  O24  1  0.372779  0.092758  0.620439  1
  O  O25  1  0.105329  0.089901  0.103931  1
  O  O26  1  0.932524  0.421300  0.382361  1
  O  O27  1  0.590500  0.636118  0.986866  1
  O  O28  1  0.627221  0.907242  0.120439  1
  O  O29  1  0.108141  0.750650  0.112745  1
  O  O30  1  0.409500  0.363882  0.013134  1
  O  O31  1  0.894671  0.910099  0.603931  1
  O  O32  1  0.536311  0.476481  0.750000  1
  O  O33  1  0.067476  0.578700  0.617639  1
  O  O34  1  0.105329  0.089901  0.396069  1
  O  O35  1  0.891859  0.249350  0.887255  1
