# generated using pymatgen
data_YbVO4
_symmetry_space_group_name_H-M   'P 1'
_cell_length_a   6.06799478
_cell_length_b   6.06799478
_cell_length_c   6.06799478
_cell_angle_alpha   106.21882372
_cell_angle_beta   106.21882375
_cell_angle_gamma   116.19240029
_symmetry_Int_Tables_number   1
_chemical_formula_structural   YbVO4
_chemical_formula_sum   'Yb2 V2 O8'
_cell_volume   170.19889347
_cell_formula_units_Z   2
loop_
 _symmetry_equiv_pos_site_id
 _symmetry_equiv_pos_as_xyz
  1  'x, y, z'
loop_
 _atom_site_type_symbol
 _atom_site_label
 _atom_site_symmetry_multiplicity
 _atom_site_fract_x
 _atom_site_fract_y
 _atom_site_fract_z
 _atom_site_occupancy
  O  O0  1  0.793408  0.730167  0.436759  1
  O  O1  1  0.356648  0.793408  0.563241  1
  O  O2  1  0.730167  0.793408  0.936759  1
  O  O3  1  0.793408  0.356648  0.063241  1
  O  O4  1  0.643352  0.206593  0.436759  1
  O  O5  1  0.206593  0.269833  0.563241  1
  O  O6  1  0.206593  0.643352  0.936759  1
  O  O7  1  0.269833  0.206593  0.063241  1
  V  V8  1  0.375000  0.625000  0.750000  1
  V  V9  1  0.625000  0.375000  0.250000  1
  Yb  Yb10  1  0.125000  0.875000  0.250000  1
  Yb  Yb11  1  0.875000  0.125000  0.750000  1
