# generated using pymatgen
data_YbZn11
_symmetry_space_group_name_H-M   'P 1'
_cell_length_a   8.28675837
_cell_length_b   8.28675837
_cell_length_c   8.28675837
_cell_angle_alpha   99.81467389
_cell_angle_beta   99.81467389
_cell_angle_gamma   131.22946201
_symmetry_Int_Tables_number   1
_chemical_formula_structural   YbZn11
_chemical_formula_sum   'Yb2 Zn22'
_cell_volume   389.79296436
_cell_formula_units_Z   2
loop_
 _symmetry_equiv_pos_site_id
 _symmetry_equiv_pos_as_xyz
  1  'x, y, z'
loop_
 _atom_site_type_symbol
 _atom_site_label
 _atom_site_symmetry_multiplicity
 _atom_site_fract_x
 _atom_site_fract_y
 _atom_site_fract_z
 _atom_site_occupancy
  Yb  Yb0  1  0.625000  0.375000  0.250000  1
  Yb  Yb1  1  0.375000  0.625000  0.750000  1
  Zn  Zn2  1  0.202712  0.278457  0.333794  1
  Zn  Zn3  1  0.444665  0.868918  0.166205  1
  Zn  Zn4  1  0.797286  0.131082  0.075746  1
  Zn  Zn5  1  0.555335  0.721540  0.424253  1
  Zn  Zn6  1  0.721542  0.797289  0.166205  1
  Zn  Zn7  1  0.131082  0.555337  0.333795  1
  Zn  Zn8  1  0.868917  0.202713  0.424254  1
  Zn  Zn9  1  0.278458  0.444663  0.075747  1
  Zn  Zn10  1  0.797286  0.721541  0.666205  1
  Zn  Zn11  1  0.555338  0.131082  0.833795  1
  Zn  Zn12  1  0.202713  0.868918  0.924255  1
  Zn  Zn13  1  0.444662  0.278457  0.575745  1
  Zn  Zn14  1  0.278459  0.202714  0.833797  1
  Zn  Zn15  1  0.868916  0.444663  0.666205  1
  Zn  Zn16  1  0.131083  0.797287  0.575746  1
  Zn  Zn17  1  0.721541  0.555338  0.924255  1
  Zn  Zn18  1  0.875000  0.125000  0.750000  1
  Zn  Zn19  1  0.125001  0.875001  0.250000  1
  Zn  Zn20  1  0.000000  0.000000  0.000000  1
  Zn  Zn21  1  0.500000  0.000000  0.500000  1
  Zn  Zn22  1  0.000001  0.000001  0.500000  1
  Zn  Zn23  1  0.999999  0.499999  0.000000  1
