# generated using pymatgen
data_Yb2Zr8O19
_symmetry_space_group_name_H-M   'P 1'
_cell_length_a   3.65512900
_cell_length_b   36.61987618
_cell_length_c   34.93911975
_cell_angle_alpha   5.20680197
_cell_angle_beta   58.36980545
_cell_angle_gamma   59.97568795
_symmetry_Int_Tables_number   1
_chemical_formula_structural   Yb2Zr8O19
_chemical_formula_sum   'Yb2 Zr8 O19'
_cell_volume   346.53917474
_cell_formula_units_Z   1
loop_
 _symmetry_equiv_pos_site_id
 _symmetry_equiv_pos_as_xyz
  1  'x, y, z'
loop_
 _atom_site_type_symbol
 _atom_site_label
 _atom_site_symmetry_multiplicity
 _atom_site_fract_x
 _atom_site_fract_y
 _atom_site_fract_z
 _atom_site_occupancy
  Yb  Yb0  1  0.014055  0.816577  0.980414  1
  Yb  Yb1  1  0.985402  0.880177  0.024192  1
  Zr  Zr2  1  0.010068  0.001582  0.997648  1
  Zr  Zr3  1  0.001481  0.103979  0.995866  1
  Zr  Zr4  1  0.000536  0.203945  0.995898  1
  Zr  Zr5  1  0.003142  0.300557  -0.000621  1
  Zr  Zr6  1  0.005838  0.400275  -0.000045  1
  Zr  Zr7  1  0.001624  0.496776  0.003601  1
  Zr  Zr8  1  0.000565  0.593409  0.007039  1
  Zr  Zr9  1  0.992856  0.696136  0.005331  1
  O  O10  1  0.241633  0.996736  0.254621  1
  O  O11  1  0.256996  0.102985  0.246471  1
  O  O12  1  0.256464  0.200548  0.249400  1
  O  O13  1  0.258523  0.300143  0.248759  1
  O  O14  1  0.255367  0.400073  0.248815  1
  O  O15  1  0.276109  0.525019  0.219555  1
  O  O16  1  0.756787  0.007940  0.740504  1
  O  O17  1  0.755304  0.103464  0.747176  1
  O  O18  1  0.227050  0.674800  0.281073  1
  O  O19  1  0.743253  0.187172  0.765410  1
  O  O20  1  0.241453  0.793287  0.259033  1
  O  O21  1  0.742044  0.294118  0.757987  1
  O  O22  1  0.249555  0.901355  0.248756  1
  O  O23  1  0.740522  0.394344  0.757542  1
  O  O24  1  0.752226  0.504628  0.744830  1
  O  O25  1  0.752704  0.598765  0.751860  1
  O  O26  1  0.759177  0.703443  0.745972  1
  O  O27  1  0.755479  0.799312  0.750074  1
  O  O28  1  0.762722  0.905856  0.741476  1
