# generated using pymatgen
data_Cr2(MoO4)3
_symmetry_space_group_name_H-M   'P 1'
_cell_length_a   9.40277570
_cell_length_b   9.49202812
_cell_length_c   13.07108326
_cell_angle_alpha   89.98411510
_cell_angle_beta   90.01032581
_cell_angle_gamma   90.00789302
_symmetry_Int_Tables_number   1
_chemical_formula_structural   Cr2(MoO4)3
_chemical_formula_sum   'Cr8 Mo12 O48'
_cell_volume   1166.61255439
_cell_formula_units_Z   4
loop_
 _symmetry_equiv_pos_site_id
 _symmetry_equiv_pos_as_xyz
  1  'x, y, z'
loop_
 _atom_site_type_symbol
 _atom_site_label
 _atom_site_symmetry_multiplicity
 _atom_site_fract_x
 _atom_site_fract_y
 _atom_site_fract_z
 _atom_site_occupancy
  Cr  Cr0  1  0.750321  0.534614  0.618454  1
  Cr  Cr1  1  0.249710  0.034669  0.618409  1
  Cr  Cr2  1  0.749611  0.034577  0.881567  1
  Cr  Cr3  1  0.749605  0.465417  0.118409  1
  Cr  Cr4  1  0.250353  0.534596  0.881608  1
  Cr  Cr5  1  0.250306  0.965364  0.118387  1
  Cr  Cr6  1  0.750287  0.965379  0.381512  1
  Cr  Cr7  1  0.249703  0.465388  0.381541  1
  Mo  Mo8  1  0.604519  0.616402  0.355112  1
  Mo  Mo9  1  0.527315  0.749956  0.000055  1
  Mo  Mo10  1  0.472676  0.250023  0.000037  1
  Mo  Mo11  1  0.395515  0.116406  0.355138  1
  Mo  Mo12  1  0.395559  0.383573  0.644880  1
  Mo  Mo13  1  0.104451  0.883517  0.855099  1
  Mo  Mo14  1  0.972614  0.250024  0.500031  1
  Mo  Mo15  1  0.895532  0.116497  0.144906  1
  Mo  Mo16  1  0.027365  0.749992  0.500011  1
  Mo  Mo17  1  0.604476  0.883558  0.644836  1
  Mo  Mo18  1  0.895502  0.383646  0.855180  1
  Mo  Mo19  1  0.104388  0.616486  0.144861  1
  O  O20  1  0.319929  0.430511  0.523981  1
  O  O21  1  0.415205  0.906732  0.641674  1
  O  O22  1  0.180222  0.930419  0.975939  1
  O  O23  1  0.582876  0.161326  0.908423  1
  O  O24  1  0.180152  0.569594  0.024097  1
  O  O25  1  0.917199  0.661168  0.591647  1
  O  O26  1  0.584812  0.406766  0.641821  1
  O  O27  1  0.819761  0.069521  0.024136  1
  O  O28  1  0.859642  0.299369  0.169250  1
  O  O29  1  0.640017  0.799201  0.330501  1
  O  O30  1  0.915153  0.906738  0.858175  1
  O  O31  1  0.583174  0.339031  0.091457  1
  O  O32  1  0.636454  0.872454  0.932395  1
  O  O33  1  0.359955  0.299240  0.330469  1
  O  O34  1  0.140165  0.700741  0.830502  1
  O  O35  1  0.417054  0.838619  0.091678  1
  O  O36  1  0.363587  0.127523  0.067804  1
  O  O37  1  0.859873  0.200867  0.830639  1
  O  O38  1  0.084780  0.093252  0.141960  1
  O  O39  1  0.584793  0.093255  0.358169  1
  O  O40  1  0.680173  0.569390  0.475891  1
  O  O41  1  0.319049  0.004335  0.259569  1
  O  O42  1  0.917162  0.838834  0.408344  1
  O  O43  1  0.863585  0.127308  0.432363  1
  O  O44  1  0.819739  0.430513  0.976071  1
  O  O45  1  0.359967  0.200784  0.669540  1
  O  O46  1  0.415271  0.593171  0.358262  1
  O  O47  1  0.640034  0.700734  0.669457  1
  O  O48  1  0.363638  0.372695  0.932403  1
  O  O49  1  0.863600  0.372732  0.567628  1
  O  O50  1  0.915108  0.592823  0.141783  1
  O  O51  1  0.681027  0.504430  0.259421  1
  O  O52  1  0.139976  0.799237  0.169484  1
  O  O53  1  0.680981  0.995710  0.740375  1
  O  O54  1  0.319941  0.069477  0.475985  1
  O  O55  1  0.084747  0.406927  0.858136  1
  O  O56  1  0.680115  0.930525  0.524001  1
  O  O57  1  0.819108  0.495709  0.759612  1
  O  O58  1  0.082794  0.338805  0.408324  1
  O  O59  1  0.319072  0.495645  0.740425  1
  O  O60  1  0.180956  0.504484  0.240431  1
  O  O61  1  0.417156  0.661162  0.908429  1
  O  O62  1  0.136396  0.627238  0.432365  1
  O  O63  1  0.819146  0.004411  0.240462  1
  O  O64  1  0.136386  0.872734  0.567617  1
  O  O65  1  0.636425  0.627081  0.067656  1
  O  O66  1  0.082823  0.161188  0.591673  1
  O  O67  1  0.181015  0.995507  0.759542  1
