# generated using pymatgen
data_Yb3Tc
_symmetry_space_group_name_H-M   'P 1'
_cell_length_a   5.17566905
_cell_length_b   5.17569209
_cell_length_c   5.17569920
_cell_angle_alpha   59.99953021
_cell_angle_beta   60.00016107
_cell_angle_gamma   60.00052276
_symmetry_Int_Tables_number   1
_chemical_formula_structural   Yb3Tc
_chemical_formula_sum   'Yb3 Tc1'
_cell_volume   98.03692081
_cell_formula_units_Z   1
loop_
 _symmetry_equiv_pos_site_id
 _symmetry_equiv_pos_as_xyz
  1  'x, y, z'
loop_
 _atom_site_type_symbol
 _atom_site_label
 _atom_site_symmetry_multiplicity
 _atom_site_fract_x
 _atom_site_fract_y
 _atom_site_fract_z
 _atom_site_occupancy
  Yb  Yb0  1  0.999999  -0.000000  0.000003  1
  Yb  Yb1  1  0.500003  0.500000  0.499999  1
  Yb  Yb2  1  0.250000  0.250000  0.250000  1
  Tc  Tc3  1  0.749999  0.750002  0.750000  1
