# generated using pymatgen
data_Yb3Ti
_symmetry_space_group_name_H-M   'P 1'
_cell_length_a   6.19809192
_cell_length_b   6.19809192
_cell_length_c   6.19809192
_cell_angle_alpha   131.97634168
_cell_angle_beta   131.97634168
_cell_angle_gamma   70.26639520
_symmetry_Int_Tables_number   1
_chemical_formula_structural   Yb3Ti
_chemical_formula_sum   'Yb3 Ti1'
_cell_volume   128.97903311
_cell_formula_units_Z   1
loop_
 _symmetry_equiv_pos_site_id
 _symmetry_equiv_pos_as_xyz
  1  'x, y, z'
loop_
 _atom_site_type_symbol
 _atom_site_label
 _atom_site_symmetry_multiplicity
 _atom_site_fract_x
 _atom_site_fract_y
 _atom_site_fract_z
 _atom_site_occupancy
  Yb  Yb0  1  0.749998  0.250000  0.499999  1
  Yb  Yb1  1  0.250000  0.749998  0.499999  1
  Yb  Yb2  1  0.500000  0.500000  0.000000  1
  Ti  Ti3  1  0.000000  0.000000  0.000000  1
