# generated using pymatgen
data_Yb3Ti3O14
_symmetry_space_group_name_H-M   'P 1'
_cell_length_a   6.64844330
_cell_length_b   6.87795769
_cell_length_c   6.87795764
_cell_angle_alpha   63.71018824
_cell_angle_beta   65.06342878
_cell_angle_gamma   65.06343046
_symmetry_Int_Tables_number   1
_chemical_formula_structural   Yb3Ti3O14
_chemical_formula_sum   'Yb3 Ti3 O14'
_cell_volume   244.79041307
_cell_formula_units_Z   1
loop_
 _symmetry_equiv_pos_site_id
 _symmetry_equiv_pos_as_xyz
  1  'x, y, z'
loop_
 _atom_site_type_symbol
 _atom_site_label
 _atom_site_symmetry_multiplicity
 _atom_site_fract_x
 _atom_site_fract_y
 _atom_site_fract_z
 _atom_site_occupancy
  Yb  Yb0  1  0.500000  0.000000  0.500000  1
  Yb  Yb1  1  0.500000  0.500000  0.000000  1
  Yb  Yb2  1  0.500000  0.500000  0.500000  1
  Ti  Ti3  1  0.000000  0.000000  0.500000  1
  Ti  Ti4  1  0.000000  0.500000  0.000000  1
  Ti  Ti5  1  0.500000  0.000000  0.000000  1
  O  O6  1  0.676981  0.078312  0.678065  1
  O  O7  1  0.676981  0.678065  0.078312  1
  O  O8  1  0.903496  0.366999  0.844453  1
  O  O9  1  0.903496  0.844453  0.366999  1
  O  O10  1  0.336336  0.895902  0.895902  1
  O  O11  1  0.904880  0.279520  0.279520  1
  O  O12  1  0.663664  0.104098  0.104098  1
  O  O13  1  0.679063  0.620881  0.620881  1
  O  O14  1  0.323019  0.321935  0.921688  1
  O  O15  1  0.323019  0.921688  0.321935  1
  O  O16  1  0.095120  0.720480  0.720480  1
  O  O17  1  0.320937  0.379119  0.379119  1
  O  O18  1  0.096504  0.155547  0.633001  1
  O  O19  1  0.096504  0.633001  0.155547  1
