# generated using pymatgen
data_Cr2(WO4)3
_symmetry_space_group_name_H-M   'P 1'
_cell_length_a   9.51460874
_cell_length_b   13.09150124
_cell_length_c   9.43805761
_cell_angle_alpha   90.00000000
_cell_angle_beta   90.00000000
_cell_angle_gamma   90.00000000
_symmetry_Int_Tables_number   1
_chemical_formula_structural   Cr2(WO4)3
_chemical_formula_sum   'Cr8 W12 O48'
_cell_volume   1175.60928930
_cell_formula_units_Z   4
loop_
 _symmetry_equiv_pos_site_id
 _symmetry_equiv_pos_as_xyz
  1  'x, y, z'
loop_
 _atom_site_type_symbol
 _atom_site_label
 _atom_site_symmetry_multiplicity
 _atom_site_fract_x
 _atom_site_fract_y
 _atom_site_fract_z
 _atom_site_occupancy
  Cr  Cr0  1  0.037226  0.620628  0.249723  1
  Cr  Cr1  1  0.037226  0.879372  0.749723  1
  Cr  Cr2  1  0.462774  0.120628  0.749723  1
  Cr  Cr3  1  0.462774  0.379372  0.249723  1
  Cr  Cr4  1  0.537226  0.879372  0.250277  1
  Cr  Cr5  1  0.537226  0.620628  0.750277  1
  Cr  Cr6  1  0.962774  0.120628  0.250277  1
  Cr  Cr7  1  0.962774  0.379372  0.750277  1
  W  W8  1  0.113910  0.355347  0.396944  1
  W  W9  1  0.113910  0.144653  0.896944  1
  W  W10  1  0.250000  0.000000  0.469744  1
  W  W11  1  0.250000  0.500000  0.969744  1
  W  W12  1  0.386090  0.644653  0.396944  1
  W  W13  1  0.386090  0.855347  0.896944  1
  W  W14  1  0.613910  0.144653  0.103056  1
  W  W15  1  0.613910  0.355347  0.603056  1
  W  W16  1  0.750000  0.000000  0.530256  1
  W  W17  1  0.750000  0.500000  0.030256  1
  W  W18  1  0.886090  0.855347  0.103056  1
  W  W19  1  0.886090  0.644653  0.603056  1
  O  O20  1  0.002039  0.761537  0.181144  1
  O  O21  1  0.002039  0.738463  0.681144  1
  O  O22  1  0.070851  0.020484  0.825217  1
  O  O23  1  0.070851  0.479516  0.325217  1
  O  O24  1  0.091664  0.146242  0.087459  1
  O  O25  1  0.091664  0.353758  0.587459  1
  O  O26  1  0.125967  0.068966  0.360912  1
  O  O27  1  0.125967  0.431034  0.860912  1
  O  O28  1  0.160904  0.591591  0.081910  1
  O  O29  1  0.160904  0.908409  0.581910  1
  O  O30  1  0.203296  0.827713  0.859147  1
  O  O31  1  0.203296  0.672287  0.359147  1
  O  O32  1  0.296704  0.172287  0.859147  1
  O  O33  1  0.296704  0.327713  0.359147  1
  O  O34  1  0.339096  0.091591  0.581910  1
  O  O35  1  0.339096  0.408409  0.081910  1
  O  O36  1  0.374033  0.568966  0.860912  1
  O  O37  1  0.374033  0.931034  0.360912  1
  O  O38  1  0.408336  0.646242  0.587459  1
  O  O39  1  0.408336  0.853758  0.087459  1
  O  O40  1  0.429149  0.520484  0.325217  1
  O  O41  1  0.429149  0.979516  0.825217  1
  O  O42  1  0.497961  0.261537  0.681144  1
  O  O43  1  0.497961  0.238463  0.181144  1
  O  O44  1  0.502039  0.738463  0.318856  1
  O  O45  1  0.502039  0.761537  0.818856  1
  O  O46  1  0.570851  0.020484  0.174783  1
  O  O47  1  0.570851  0.479516  0.674783  1
  O  O48  1  0.591664  0.353758  0.412541  1
  O  O49  1  0.591664  0.146242  0.912541  1
  O  O50  1  0.625967  0.068966  0.639088  1
  O  O51  1  0.625967  0.431034  0.139088  1
  O  O52  1  0.660904  0.908409  0.418090  1
  O  O53  1  0.660904  0.591591  0.918090  1
  O  O54  1  0.703296  0.672287  0.640853  1
  O  O55  1  0.703296  0.827713  0.140853  1
  O  O56  1  0.796704  0.172287  0.140853  1
  O  O57  1  0.796704  0.327713  0.640853  1
  O  O58  1  0.839096  0.408409  0.918090  1
  O  O59  1  0.839096  0.091591  0.418090  1
  O  O60  1  0.874033  0.931034  0.639088  1
  O  O61  1  0.874033  0.568966  0.139088  1
  O  O62  1  0.908336  0.853758  0.912541  1
  O  O63  1  0.908336  0.646242  0.412541  1
  O  O64  1  0.929149  0.979516  0.174783  1
  O  O65  1  0.929149  0.520484  0.674783  1
  O  O66  1  0.997961  0.238463  0.818856  1
  O  O67  1  0.997961  0.261537  0.318856  1
