# generated using pymatgen
data_YbB4Ru
_symmetry_space_group_name_H-M   'P 1'
_cell_length_a   5.94774793
_cell_length_b   11.52003897
_cell_length_c   3.53222280
_cell_angle_alpha   89.99994549
_cell_angle_beta   89.99988746
_cell_angle_gamma   89.99985769
_symmetry_Int_Tables_number   1
_chemical_formula_structural   YbB4Ru
_chemical_formula_sum   'Yb4 B16 Ru4'
_cell_volume   242.02185887
_cell_formula_units_Z   4
loop_
 _symmetry_equiv_pos_site_id
 _symmetry_equiv_pos_as_xyz
  1  'x, y, z'
loop_
 _atom_site_type_symbol
 _atom_site_label
 _atom_site_symmetry_multiplicity
 _atom_site_fract_x
 _atom_site_fract_y
 _atom_site_fract_z
 _atom_site_occupancy
  Yb  Yb0  1  0.129871  0.150491  1.000000  1
  Yb  Yb1  1  0.870121  0.849517  0.999999  1
  Yb  Yb2  1  0.629867  0.349515  -0.000000  1
  Yb  Yb3  1  0.370121  0.650478  0.999999  1
  B  B4  1  0.476446  0.192205  0.499998  1
  B  B5  1  0.523548  0.807809  0.500000  1
  B  B6  1  0.976450  0.307802  0.500000  1
  B  B7  1  0.023547  0.692184  0.500000  1
  B  B8  1  0.286970  0.315001  0.499999  1
  B  B9  1  0.713041  0.684995  0.500001  1
  B  B10  1  0.786970  0.185004  0.500000  1
  B  B11  1  0.213041  0.814999  0.499998  1
  B  B12  1  0.364833  0.468868  0.500001  1
  B  B13  1  0.635191  0.531126  0.499999  1
  B  B14  1  0.864833  0.031132  0.500001  1
  B  B15  1  0.135186  0.968872  0.499999  1
  B  B16  1  0.387317  0.047264  0.499999  1
  B  B17  1  0.612672  0.952726  0.499999  1
  B  B18  1  0.887321  0.452738  0.499999  1
  B  B19  1  0.112667  0.547270  0.499999  1
  Ru  Ru20  1  0.135485  0.412497  0.000007  1
  Ru  Ru21  1  0.864511  0.587502  0.000000  1
  Ru  Ru22  1  0.635499  0.087518  0.999998  1
  Ru  Ru23  1  0.364493  0.912480  0.000006  1
