# generated using pymatgen
data_YbFeO3
_symmetry_space_group_name_H-M   'P 1'
_cell_length_a   5.28953588
_cell_length_b   5.40804074
_cell_length_c   7.53636397
_cell_angle_alpha   90.00000000
_cell_angle_beta   90.00000000
_cell_angle_gamma   90.00000000
_symmetry_Int_Tables_number   1
_chemical_formula_structural   YbFeO3
_chemical_formula_sum   'Yb4 Fe4 O12'
_cell_volume   215.58542016
_cell_formula_units_Z   4
loop_
 _symmetry_equiv_pos_site_id
 _symmetry_equiv_pos_as_xyz
  1  'x, y, z'
loop_
 _atom_site_type_symbol
 _atom_site_label
 _atom_site_symmetry_multiplicity
 _atom_site_fract_x
 _atom_site_fract_y
 _atom_site_fract_z
 _atom_site_occupancy
  O  O0  1  0.706662  0.293224  0.458603  1
  O  O1  1  0.206662  0.206776  0.541397  1
  O  O2  1  0.793338  0.793224  0.041397  1
  O  O3  1  0.293338  0.706776  0.958603  1
  O  O4  1  0.293338  0.706776  0.541397  1
  O  O5  1  0.793338  0.793224  0.458603  1
  O  O6  1  0.206662  0.206776  0.958603  1
  O  O7  1  0.706662  0.293224  0.041397  1
  O  O8  1  0.079038  0.481677  0.250000  1
  O  O9  1  0.579038  0.018323  0.750000  1
  O  O10  1  0.420962  0.981677  0.250000  1
  O  O11  1  0.920962  0.518323  0.750000  1
  Fe  Fe12  1  0.000000  0.500000  0.500000  1
  Fe  Fe13  1  0.500000  0.000000  0.500000  1
  Fe  Fe14  1  0.500000  0.000000  0.000000  1
  Fe  Fe15  1  0.000000  0.500000  0.000000  1
  Yb  Yb16  1  0.011747  0.947678  0.750000  1
  Yb  Yb17  1  0.511747  0.552322  0.250000  1
  Yb  Yb18  1  0.488253  0.447678  0.750000  1
  Yb  Yb19  1  0.988253  0.052322  0.250000  1
