# generated using pymatgen
data_Yb2Fe3O7
_symmetry_space_group_name_H-M   'P 1'
_cell_length_a   3.50068188
_cell_length_b   3.50068188
_cell_length_c   28.46108638
_cell_angle_alpha   90.00000000
_cell_angle_beta   90.00000000
_cell_angle_gamma   119.99999999
_symmetry_Int_Tables_number   1
_chemical_formula_structural   Yb2Fe3O7
_chemical_formula_sum   'Yb4 Fe6 O14'
_cell_volume   302.05595241
_cell_formula_units_Z   2
loop_
 _symmetry_equiv_pos_site_id
 _symmetry_equiv_pos_as_xyz
  1  'x, y, z'
loop_
 _atom_site_type_symbol
 _atom_site_label
 _atom_site_symmetry_multiplicity
 _atom_site_fract_x
 _atom_site_fract_y
 _atom_site_fract_z
 _atom_site_occupancy
  O  O0  1  0.666666  0.333332  0.750000  1
  O  O1  1  0.333334  0.666668  0.250000  1
  O  O2  1  0.000000  0.000000  0.313127  1
  O  O3  1  0.000000  0.000000  0.813127  1
  O  O4  1  0.000000  0.000000  0.686873  1
  O  O5  1  0.000000  0.000000  0.186873  1
  O  O6  1  0.666666  0.333332  0.391866  1
  O  O7  1  0.333334  0.666668  0.891866  1
  O  O8  1  0.333334  0.666668  0.608134  1
  O  O9  1  0.666666  0.333332  0.108134  1
  O  O10  1  0.333334  0.666668  0.031746  1
  O  O11  1  0.666666  0.333332  0.531746  1
  O  O12  1  0.333334  0.666668  0.468254  1
  O  O13  1  0.666666  0.333332  0.968254  1
  Fe  Fe14  1  0.666666  0.333332  0.455587  1
  Fe  Fe15  1  0.333334  0.666668  0.955587  1
  Fe  Fe16  1  0.333334  0.666668  0.544413  1
  Fe  Fe17  1  0.666666  0.333332  0.044413  1
  Fe  Fe18  1  0.000000  0.000000  0.750000  1
  Fe  Fe19  1  0.000000  0.000000  0.250000  1
  Yb  Yb20  1  0.333334  0.666668  0.350754  1
  Yb  Yb21  1  0.666666  0.333332  0.850754  1
  Yb  Yb22  1  0.666666  0.333332  0.649246  1
  Yb  Yb23  1  0.333334  0.666668  0.149246  1
