# generated using pymatgen
data_Cu6Mo5O18
_symmetry_space_group_name_H-M   'P 1'
_cell_length_a   6.31847479
_cell_length_b   10.01742355
_cell_length_c   12.22345765
_cell_angle_alpha   83.97924710
_cell_angle_beta   75.02147818
_cell_angle_gamma   71.61659189
_symmetry_Int_Tables_number   1
_chemical_formula_structural   Cu6Mo5O18
_chemical_formula_sum   'Cu12 Mo10 O36'
_cell_volume   709.02206766
_cell_formula_units_Z   2
loop_
 _symmetry_equiv_pos_site_id
 _symmetry_equiv_pos_as_xyz
  1  'x, y, z'
loop_
 _atom_site_type_symbol
 _atom_site_label
 _atom_site_symmetry_multiplicity
 _atom_site_fract_x
 _atom_site_fract_y
 _atom_site_fract_z
 _atom_site_occupancy
  O  O0  1  0.160286  0.089352  0.251642  1
  O  O1  1  0.001279  0.410648  0.248358  1
  O  O2  1  0.839714  0.910648  0.748358  1
  O  O3  1  0.998721  0.589352  0.751642  1
  O  O4  1  0.581095  0.718844  0.908889  1
  O  O5  1  0.708828  0.781156  0.591111  1
  O  O6  1  0.418905  0.281156  0.091111  1
  O  O7  1  0.291172  0.218844  0.408889  1
  O  O8  1  0.560886  0.398273  0.264992  1
  O  O9  1  0.724152  0.101727  0.235008  1
  O  O10  1  0.439114  0.601727  0.735008  1
  O  O11  1  0.275848  0.898273  0.764992  1
  O  O12  1  0.007803  0.088518  0.572328  1
  O  O13  1  0.168649  0.411482  0.927672  1
  O  O14  1  0.992197  0.911482  0.427672  1
  O  O15  1  0.831351  0.588518  0.072328  1
  O  O16  1  0.852944  0.395561  0.576890  1
  O  O17  1  0.325396  0.104439  0.923110  1
  O  O18  1  0.147056  0.604439  0.423110  1
  O  O19  1  0.674604  0.895561  0.076890  1
  O  O20  1  0.857589  0.125340  0.937514  1
  O  O21  1  0.420442  0.374660  0.562486  1
  O  O22  1  0.115454  0.250231  0.755110  1
  O  O23  1  0.620795  0.249769  0.744890  1
  O  O24  1  0.884546  0.749769  0.244890  1
  O  O25  1  0.379205  0.750231  0.255110  1
  O  O26  1  0.419042  0.921698  0.406169  1
  O  O27  1  0.246909  0.578302  0.093831  1
  O  O28  1  0.580958  0.078302  0.593831  1
  O  O29  1  0.753091  0.421698  0.906169  1
  O  O30  1  0.962354  0.280162  0.089677  1
  O  O31  1  0.832193  0.219838  0.410323  1
  O  O32  1  0.037646  0.719838  0.910323  1
  O  O33  1  0.167807  0.780162  0.589677  1
  O  O34  1  0.579558  0.625340  0.437514  1
  O  O35  1  0.142411  0.874660  0.062486  1
  Cu  Cu36  1  0.249932  0.076857  0.660672  1
  Cu  Cu37  1  0.487461  0.423143  0.839328  1
  Cu  Cu38  1  0.750068  0.923143  0.339328  1
  Cu  Cu39  1  0.512539  0.576857  0.160672  1
  Cu  Cu40  1  0.289652  0.405590  0.412195  1
  Cu  Cu41  1  0.607436  0.094410  0.087805  1
  Cu  Cu42  1  0.710348  0.594410  0.587805  1
  Cu  Cu43  1  0.392564  0.905590  0.912195  1
  Cu  Cu44  1  0.091354  0.424432  0.649449  1
  Cu  Cu45  1  0.665235  0.075568  0.850551  1
  Cu  Cu46  1  0.334765  0.924432  0.149449  1
  Cu  Cu47  1  0.908646  0.575568  0.350551  1
  Mo  Mo48  1  0.841228  0.584118  0.904448  1
  Mo  Mo49  1  0.829794  0.915882  0.595552  1
  Mo  Mo50  1  0.158772  0.415882  0.095552  1
  Mo  Mo51  1  0.170206  0.084118  0.404448  1
  Mo  Mo52  1  0.049421  0.232706  0.909235  1
  Mo  Mo53  1  0.691362  0.267294  0.590765  1
  Mo  Mo54  1  0.950579  0.767294  0.090765  1
  Mo  Mo55  1  0.308638  0.732706  0.409235  1
  Mo  Mo56  1  0.818489  0.250000  0.250000  1
  Mo  Mo57  1  0.181511  0.750000  0.750000  1
