# generated using pymatgen
data_Yb2TiO5
_symmetry_space_group_name_H-M   'P 1'
_cell_length_a   5.21799579
_cell_length_b   6.57750899
_cell_length_c   7.57283522
_cell_angle_alpha   66.93047826
_cell_angle_beta   90.07465879
_cell_angle_gamma   66.60792184
_symmetry_Int_Tables_number   1
_chemical_formula_structural   Yb2TiO5
_chemical_formula_sum   'Yb4 Ti2 O10'
_cell_volume   215.65087178
_cell_formula_units_Z   2
loop_
 _symmetry_equiv_pos_site_id
 _symmetry_equiv_pos_as_xyz
  1  'x, y, z'
loop_
 _atom_site_type_symbol
 _atom_site_label
 _atom_site_symmetry_multiplicity
 _atom_site_fract_x
 _atom_site_fract_y
 _atom_site_fract_z
 _atom_site_occupancy
  Yb  Yb0  1  0.630179  0.721779  0.770278  1
  Yb  Yb1  1  0.647667  0.721637  0.269579  1
  Yb  Yb2  1  0.353399  0.276152  0.729521  1
  Yb  Yb3  1  0.368241  0.276313  0.230965  1
  Ti  Ti4  1  0.996615  0.003290  0.501766  1
  Ti  Ti5  1  0.995563  0.008609  0.002423  1
  O  O6  1  0.734018  0.873797  0.967015  1
  O  O7  1  0.392977  0.876102  0.465196  1
  O  O8  1  0.030067  0.670810  0.622719  1
  O  O9  1  0.697918  0.328741  0.876013  1
  O  O10  1  0.300364  0.672318  0.115080  1
  O  O11  1  0.977563  0.327213  0.385008  1
  O  O12  1  0.605377  0.121367  0.535013  1
  O  O13  1  0.143620  0.997779  0.752542  1
  O  O14  1  0.276706  0.119189  0.036149  1
  O  O15  1  0.858735  0.997749  0.252789  1
