# generated using pymatgen
data_YbV4O8
_symmetry_space_group_name_H-M   'P 1'
_cell_length_a   5.88486932
_cell_length_b   9.18727349
_cell_length_c   10.73398471
_cell_angle_alpha   90.00000000
_cell_angle_beta   90.00000000
_cell_angle_gamma   90.48271208
_symmetry_Int_Tables_number   1
_chemical_formula_structural   YbV4O8
_chemical_formula_sum   'Yb4 V16 O32'
_cell_volume   580.32199025
_cell_formula_units_Z   4
loop_
 _symmetry_equiv_pos_site_id
 _symmetry_equiv_pos_as_xyz
  1  'x, y, z'
loop_
 _atom_site_type_symbol
 _atom_site_label
 _atom_site_symmetry_multiplicity
 _atom_site_fract_x
 _atom_site_fract_y
 _atom_site_fract_z
 _atom_site_occupancy
  O  O0  1  0.122691  0.922336  0.072393  1
  O  O1  1  0.377309  0.577664  0.572392  1
  O  O2  1  0.877308  0.077664  0.927608  1
  O  O3  1  0.622691  0.422336  0.427608  1
  O  O4  1  0.148972  0.013848  0.710954  1
  O  O5  1  0.351028  0.486152  0.210955  1
  O  O6  1  0.851029  0.986152  0.289045  1
  O  O7  1  0.648971  0.513847  0.789046  1
  O  O8  1  0.116899  0.613453  0.020761  1
  O  O9  1  0.383100  0.886547  0.520762  1
  O  O10  1  0.883100  0.386547  0.979238  1
  O  O11  1  0.616899  0.113453  0.479238  1
  O  O12  1  0.138065  0.707335  0.349481  1
  O  O13  1  0.361936  0.792665  0.849480  1
  O  O14  1  0.861936  0.292665  0.650520  1
  O  O15  1  0.638065  0.207335  0.150519  1
  O  O16  1  0.626299  0.920202  0.070942  1
  O  O17  1  0.873700  0.579797  0.570942  1
  O  O18  1  0.373700  0.079797  0.929058  1
  O  O19  1  0.126299  0.420202  0.429057  1
  O  O20  1  0.100144  0.202926  0.153726  1
  O  O21  1  0.399857  0.297074  0.653725  1
  O  O22  1  0.899857  0.797075  0.846275  1
  O  O23  1  0.600143  0.702925  0.346275  1
  O  O24  1  0.124259  0.118173  0.480094  1
  O  O25  1  0.375740  0.381827  0.980095  1
  O  O26  1  0.620820  0.037512  0.722869  1
  O  O27  1  0.624259  0.618174  0.019905  1
  O  O28  1  0.120820  0.537512  0.777131  1
  O  O29  1  0.379181  0.962488  0.277130  1
  O  O30  1  0.879181  0.462488  0.222870  1
  O  O31  1  0.875740  0.881826  0.519905  1
  V  V32  1  0.125919  0.921062  0.392383  1
  V  V33  1  0.374082  0.578938  0.892383  1
  V  V34  1  0.874080  0.078939  0.607617  1
  V  V35  1  0.625919  0.421061  0.107617  1
  V  V36  1  0.135087  0.951731  0.889047  1
  V  V37  1  0.364914  0.548269  0.389047  1
  V  V38  1  0.864913  0.048269  0.110953  1
  V  V39  1  0.635087  0.451731  0.610953  1
  V  V40  1  0.618867  0.908690  0.402387  1
  V  V41  1  0.881134  0.591310  0.902387  1
  V  V42  1  0.124740  0.425760  0.619555  1
  V  V43  1  0.118867  0.408690  0.097612  1
  V  V44  1  0.624740  0.925759  0.880445  1
  V  V45  1  0.875259  0.574241  0.380445  1
  V  V46  1  0.375259  0.074241  0.119556  1
  V  V47  1  0.381134  0.091310  0.597612  1
  Yb  Yb48  1  0.631141  0.256748  0.846193  1
  Yb  Yb49  1  0.868859  0.243252  0.346193  1
  Yb  Yb50  1  0.368858  0.743251  0.153807  1
  Yb  Yb51  1  0.131142  0.756749  0.653807  1
