# generated using pymatgen
data_YbV4O8
_symmetry_space_group_name_H-M   'P 1'
_cell_length_a   9.17125160
_cell_length_b   11.16700049
_cell_length_c   11.20578685
_cell_angle_alpha   149.53958050
_cell_angle_beta   90.00000000
_cell_angle_gamma   90.00000000
_symmetry_Int_Tables_number   1
_chemical_formula_structural   YbV4O8
_chemical_formula_sum   'Yb4 V16 O32'
_cell_volume   581.79053016
_cell_formula_units_Z   4
loop_
 _symmetry_equiv_pos_site_id
 _symmetry_equiv_pos_as_xyz
  1  'x, y, z'
loop_
 _atom_site_type_symbol
 _atom_site_label
 _atom_site_symmetry_multiplicity
 _atom_site_fract_x
 _atom_site_fract_y
 _atom_site_fract_z
 _atom_site_occupancy
  Yb  Yb0  1  0.743422  0.952344  0.795474  1
  Yb  Yb1  1  0.256578  0.047656  0.204526  1
  Yb  Yb2  1  0.243422  0.547656  0.204526  1
  Yb  Yb3  1  0.756578  0.452344  0.795474  1
  V  V4  1  0.073691  0.934580  0.816940  1
  V  V5  1  0.926309  0.065420  0.183060  1
  V  V6  1  0.573691  0.565420  0.183060  1
  V  V7  1  0.426309  0.434580  0.816940  1
  V  V8  1  0.090858  0.173417  0.572277  1
  V  V9  1  0.909142  0.826583  0.427723  1
  V  V10  1  0.590858  0.326583  0.427723  1
  V  V11  1  0.409142  0.673417  0.572277  1
  V  V12  1  0.047474  0.426933  0.315245  1
  V  V13  1  0.952526  0.573067  0.684755  1
  V  V14  1  0.547474  0.073067  0.684755  1
  V  V15  1  0.452526  0.926933  0.315245  1
  V  V16  1  0.079328  0.682509  0.078894  1
  V  V17  1  0.920672  0.317491  0.921106  1
  V  V18  1  0.579328  0.817491  0.921106  1
  V  V19  1  0.420672  0.182509  0.078894  1
  O  O20  1  0.299892  0.179707  0.526448  1
  O  O21  1  0.700108  0.820293  0.473552  1
  O  O22  1  0.799892  0.320293  0.473552  1
  O  O23  1  0.200108  0.679707  0.526448  1
  O  O24  1  0.389152  0.349112  0.371146  1
  O  O25  1  0.610848  0.650888  0.628854  1
  O  O26  1  0.889152  0.150888  0.628854  1
  O  O27  1  0.110848  0.849112  0.371146  1
  O  O28  1  0.964934  0.022844  0.744747  1
  O  O29  1  0.035066  0.977156  0.255253  1
  O  O30  1  0.464934  0.477156  0.255253  1
  O  O31  1  0.535066  0.522844  0.744747  1
  O  O32  1  0.078961  0.339202  0.410276  1
  O  O33  1  0.921039  0.660798  0.589724  1
  O  O34  1  0.578961  0.160798  0.589724  1
  O  O35  1  0.421039  0.839202  0.410276  1
  O  O36  1  0.291863  0.717762  0.068898  1
  O  O37  1  0.708137  0.282238  0.931102  1
  O  O38  1  0.791863  0.782238  0.931102  1
  O  O39  1  0.208137  0.217762  0.068898  1
  O  O40  1  0.381704  0.877761  0.898144  1
  O  O41  1  0.618296  0.122239  0.101856  1
  O  O42  1  0.881704  0.622239  0.101856  1
  O  O43  1  0.118296  0.377761  0.898144  1
  O  O44  1  0.982205  0.509641  0.222957  1
  O  O45  1  0.017795  0.490359  0.777043  1
  O  O46  1  0.482205  0.990359  0.777043  1
  O  O47  1  0.517795  0.009641  0.222957  1
  O  O48  1  0.080109  0.837336  0.908472  1
  O  O49  1  0.919891  0.162664  0.091528  1
  O  O50  1  0.580109  0.662664  0.091528  1
  O  O51  1  0.419891  0.337336  0.908472  1
