# generated using pymatgen
data_Yb2Zr2O7
_symmetry_space_group_name_H-M   'P 1'
_cell_length_a   3.67345142
_cell_length_b   14.95985193
_cell_length_c   13.10913803
_cell_angle_alpha   28.80222713
_cell_angle_beta   55.91367514
_cell_angle_gamma   60.58656708
_symmetry_Int_Tables_number   1
_chemical_formula_structural   Yb2Zr2O7
_chemical_formula_sum   'Yb4 Zr4 O14'
_cell_volume   287.45086324
_cell_formula_units_Z   2
loop_
 _symmetry_equiv_pos_site_id
 _symmetry_equiv_pos_as_xyz
  1  'x, y, z'
loop_
 _atom_site_type_symbol
 _atom_site_label
 _atom_site_symmetry_multiplicity
 _atom_site_fract_x
 _atom_site_fract_y
 _atom_site_fract_z
 _atom_site_occupancy
  Yb  Yb0  1  0.049625  0.000000  0.475187  1
  Yb  Yb1  1  0.000000  0.750000  0.000000  1
  Yb  Yb2  1  0.000000  0.250000  0.500000  1
  Yb  Yb3  1  0.950375  0.500000  0.524813  1
  Zr  Zr4  1  0.054754  0.000000  0.972623  1
  Zr  Zr5  1  0.000000  0.250000  0.000000  1
  Zr  Zr6  1  0.945246  0.500000  0.027377  1
  Zr  Zr7  1  0.000000  0.750000  0.500000  1
  O  O8  1  0.260077  0.000000  0.119962  1
  O  O9  1  0.266979  0.288020  0.078490  1
  O  O10  1  0.247442  0.500000  0.126279  1
  O  O11  1  0.781305  0.000000  0.359347  1
  O  O12  1  0.231179  0.732147  0.152263  1
  O  O13  1  0.231179  0.267853  0.616558  1
  O  O14  1  0.768821  0.232147  0.383442  1
  O  O15  1  0.218695  0.500000  0.640653  1
  O  O16  1  0.752558  0.000000  0.873721  1
  O  O17  1  0.266979  0.711980  0.654530  1
  O  O18  1  0.733021  0.211980  0.921510  1
  O  O19  1  0.733021  0.788020  0.345470  1
  O  O20  1  0.739923  0.500000  0.880038  1
  O  O21  1  0.768821  0.767853  0.847737  1
