# generated using pymatgen
data_Yb6Fe23
_symmetry_space_group_name_H-M   'P 1'
_cell_length_a   8.44262722
_cell_length_b   8.44328518
_cell_length_c   8.44182342
_cell_angle_alpha   59.98704561
_cell_angle_beta   60.00684569
_cell_angle_gamma   59.99768277
_symmetry_Int_Tables_number   1
_chemical_formula_structural   Yb6Fe23
_chemical_formula_sum   'Yb6 Fe23'
_cell_volume   425.48343278
_cell_formula_units_Z   1
loop_
 _symmetry_equiv_pos_site_id
 _symmetry_equiv_pos_as_xyz
  1  'x, y, z'
loop_
 _atom_site_type_symbol
 _atom_site_label
 _atom_site_symmetry_multiplicity
 _atom_site_fract_x
 _atom_site_fract_y
 _atom_site_fract_z
 _atom_site_occupancy
  Yb  Yb0  1  0.788525  0.211407  0.211442  1
  Yb  Yb1  1  0.788516  0.788641  0.211429  1
  Yb  Yb2  1  0.788544  0.211399  0.788638  1
  Yb  Yb3  1  0.211487  0.211350  0.788578  1
  Yb  Yb4  1  0.211460  0.788604  0.211357  1
  Yb  Yb5  1  0.211482  0.788593  0.788559  1
  Fe  Fe6  1  0.824141  0.527433  0.824195  1
  Fe  Fe7  1  0.175849  0.472579  0.175802  1
  Fe  Fe8  1  0.999991  0.499997  0.000010  1
  Fe  Fe9  1  0.379915  0.379898  0.379882  1
  Fe  Fe10  1  0.175852  0.175777  0.472583  1
  Fe  Fe11  1  0.139715  0.620120  0.620040  1
  Fe  Fe12  1  0.499992  0.999996  0.999990  1
  Fe  Fe13  1  0.824145  0.824241  0.824193  1
  Fe  Fe14  1  0.527378  0.824221  0.824190  1
  Fe  Fe15  1  0.620084  0.139673  0.620144  1
  Fe  Fe16  1  0.500052  0.499982  0.500001  1
  Fe  Fe17  1  0.472615  0.175782  0.175811  1
  Fe  Fe18  1  0.860281  0.379880  0.379962  1
  Fe  Fe19  1  0.175847  0.175759  0.175802  1
  Fe  Fe20  1  0.500003  0.999982  0.500025  1
  Fe  Fe21  1  0.999987  0.000011  0.499994  1
  Fe  Fe22  1  0.620019  0.620159  0.139690  1
  Fe  Fe23  1  0.824143  0.824224  0.527418  1
  Fe  Fe24  1  0.620091  0.620102  0.620121  1
  Fe  Fe25  1  0.379924  0.860317  0.379859  1
  Fe  Fe26  1  0.499994  0.500024  0.999985  1
  Fe  Fe27  1  0.379987  0.379843  0.860303  1
  Fe  Fe28  1  0.999982  0.500008  0.499998  1
