# generated using pymatgen
data_Yb3Pt4
_symmetry_space_group_name_H-M   'P 1'
_cell_length_a   7.75421913
_cell_length_b   7.75421927
_cell_length_c   7.75421901
_cell_angle_alpha   114.26271458
_cell_angle_beta   114.26271511
_cell_angle_gamma   114.26271718
_symmetry_Int_Tables_number   1
_chemical_formula_structural   Yb3Pt4
_chemical_formula_sum   'Yb6 Pt8'
_cell_volume   277.66373980
_cell_formula_units_Z   2
loop_
 _symmetry_equiv_pos_site_id
 _symmetry_equiv_pos_as_xyz
  1  'x, y, z'
loop_
 _atom_site_type_symbol
 _atom_site_label
 _atom_site_symmetry_multiplicity
 _atom_site_fract_x
 _atom_site_fract_y
 _atom_site_fract_z
 _atom_site_occupancy
  Yb  Yb0  1  0.721926  0.600820  0.978945  1
  Yb  Yb1  1  0.021055  0.278074  0.399180  1
  Yb  Yb2  1  0.978945  0.721926  0.600820  1
  Yb  Yb3  1  0.278074  0.399180  0.021055  1
  Yb  Yb4  1  0.600820  0.978945  0.721926  1
  Yb  Yb5  1  0.399180  0.021055  0.278074  1
  Pt  Pt6  1  0.064281  0.555068  0.228289  1
  Pt  Pt7  1  0.771711  0.935719  0.444932  1
  Pt  Pt8  1  0.228289  0.064281  0.555068  1
  Pt  Pt9  1  0.555068  0.228289  0.064281  1
  Pt  Pt10  1  0.444932  0.771711  0.935719  1
  Pt  Pt11  1  0.935719  0.444932  0.771711  1
  Pt  Pt12  1  0.500000  0.500000  0.500000  1
  Pt  Pt13  1  0.000000  0.000000  0.000000  1
