# generated using pymatgen
data_Yb3W
_symmetry_space_group_name_H-M   'P 1'
_cell_length_a   6.89854293
_cell_length_b   6.89854256
_cell_length_c   5.27949541
_cell_angle_alpha   90.00000000
_cell_angle_beta   90.00000000
_cell_angle_gamma   119.99999693
_symmetry_Int_Tables_number   1
_chemical_formula_structural   Yb3W
_chemical_formula_sum   'Yb6 W2'
_cell_volume   217.58942322
_cell_formula_units_Z   2
loop_
 _symmetry_equiv_pos_site_id
 _symmetry_equiv_pos_as_xyz
  1  'x, y, z'
loop_
 _atom_site_type_symbol
 _atom_site_label
 _atom_site_symmetry_multiplicity
 _atom_site_fract_x
 _atom_site_fract_y
 _atom_site_fract_z
 _atom_site_occupancy
  Yb  Yb0  1  0.179214  0.358428  0.250000  1
  Yb  Yb1  1  0.641571  0.820785  0.250000  1
  Yb  Yb2  1  0.179214  0.820785  0.250000  1
  Yb  Yb3  1  0.820786  0.641571  0.749999  1
  Yb  Yb4  1  0.358428  0.179213  0.749999  1
  Yb  Yb5  1  0.820785  0.179213  0.749999  1
  W  W6  1  0.333333  0.666667  0.749999  1
  W  W7  1  0.666667  0.333333  0.250000  1
