# generated using pymatgen
data_Yb3Y
_symmetry_space_group_name_H-M   'P 1'
_cell_length_a   7.49585531
_cell_length_b   7.49585561
_cell_length_c   6.12295580
_cell_angle_alpha   90.00000000
_cell_angle_beta   90.00000000
_cell_angle_gamma   120.00000754
_symmetry_Int_Tables_number   1
_chemical_formula_structural   Yb3Y
_chemical_formula_sum   'Yb6 Y2'
_cell_volume   297.94364766
_cell_formula_units_Z   2
loop_
 _symmetry_equiv_pos_site_id
 _symmetry_equiv_pos_as_xyz
  1  'x, y, z'
loop_
 _atom_site_type_symbol
 _atom_site_label
 _atom_site_symmetry_multiplicity
 _atom_site_fract_x
 _atom_site_fract_y
 _atom_site_fract_z
 _atom_site_occupancy
  Yb  Yb0  1  0.170475  0.340950  0.249999  1
  Yb  Yb1  1  0.659049  0.829525  0.249999  1
  Yb  Yb2  1  0.170475  0.829525  0.249999  1
  Yb  Yb3  1  0.829525  0.659050  0.750000  1
  Yb  Yb4  1  0.340950  0.170474  0.750000  1
  Yb  Yb5  1  0.829524  0.170474  0.750000  1
  Y  Y6  1  0.333334  0.666668  0.750000  1
  Y  Y7  1  0.666667  0.333333  0.249999  1
