# generated using pymatgen
data_YbCu(MoO4)2
_symmetry_space_group_name_H-M   'P 1'
_cell_length_a   9.89753028
_cell_length_b   10.42189560
_cell_length_c   14.67865024
_cell_angle_alpha   90.00000000
_cell_angle_beta   90.00000000
_cell_angle_gamma   90.00000000
_symmetry_Int_Tables_number   1
_chemical_formula_structural   YbCu(MoO4)2
_chemical_formula_sum   'Yb8 Cu8 Mo16 O64'
_cell_volume   1514.11785128
_cell_formula_units_Z   8
loop_
 _symmetry_equiv_pos_site_id
 _symmetry_equiv_pos_as_xyz
  1  'x, y, z'
loop_
 _atom_site_type_symbol
 _atom_site_label
 _atom_site_symmetry_multiplicity
 _atom_site_fract_x
 _atom_site_fract_y
 _atom_site_fract_z
 _atom_site_occupancy
  Yb  Yb0  1  0.275960  0.468494  0.103592  1
  Yb  Yb1  1  0.224040  0.468494  0.603592  1
  Yb  Yb2  1  0.724040  0.531506  0.896408  1
  Yb  Yb3  1  0.724040  0.031506  0.603592  1
  Yb  Yb4  1  0.775960  0.031506  0.103592  1
  Yb  Yb5  1  0.275960  0.968494  0.396408  1
  Yb  Yb6  1  0.775960  0.531506  0.396408  1
  Yb  Yb7  1  0.224040  0.968494  0.896408  1
  Cu  Cu8  1  0.309237  0.316637  0.297726  1
  Cu  Cu9  1  0.690763  0.683363  0.702274  1
  Cu  Cu10  1  0.809237  0.183363  0.297726  1
  Cu  Cu11  1  0.190763  0.316637  0.797726  1
  Cu  Cu12  1  0.809237  0.683363  0.202274  1
  Cu  Cu13  1  0.190763  0.816637  0.702274  1
  Cu  Cu14  1  0.309237  0.816637  0.202274  1
  Cu  Cu15  1  0.690763  0.183363  0.797726  1
  Mo  Mo16  1  0.332567  0.105129  0.655546  1
  Mo  Mo17  1  0.503889  0.278618  0.445658  1
  Mo  Mo18  1  0.496111  0.721382  0.554342  1
  Mo  Mo19  1  0.667433  0.894871  0.344454  1
  Mo  Mo20  1  0.003889  0.221382  0.445658  1
  Mo  Mo21  1  0.503889  0.778618  0.054342  1
  Mo  Mo22  1  0.167433  0.605129  0.344454  1
  Mo  Mo23  1  0.003889  0.721382  0.054342  1
  Mo  Mo24  1  0.832567  0.894871  0.844454  1
  Mo  Mo25  1  0.996111  0.778618  0.554342  1
  Mo  Mo26  1  0.996111  0.278618  0.945658  1
  Mo  Mo27  1  0.496111  0.221382  0.945658  1
  Mo  Mo28  1  0.167433  0.105129  0.155546  1
  Mo  Mo29  1  0.332567  0.605129  0.844454  1
  Mo  Mo30  1  0.667433  0.394871  0.155546  1
  Mo  Mo31  1  0.832567  0.394871  0.655546  1
  O  O32  1  0.387178  0.187224  0.367076  1
  O  O33  1  0.112797  0.328123  0.503182  1
  O  O34  1  0.887203  0.671877  0.496818  1
  O  O35  1  0.908212  0.628677  0.976408  1
  O  O36  1  0.796024  0.422200  0.540202  1
  O  O37  1  0.771504  0.232951  0.685714  1
  O  O38  1  0.099985  0.117900  0.373466  1
  O  O39  1  0.271504  0.767049  0.814286  1
  O  O40  1  0.756046  0.015002  0.274826  1
  O  O41  1  0.599985  0.382100  0.373466  1
  O  O42  1  0.508440  0.090448  0.670247  1
  O  O43  1  0.612822  0.312776  0.867076  1
  O  O44  1  0.091788  0.871323  0.476408  1
  O  O45  1  0.743954  0.515002  0.725174  1
  O  O46  1  0.491560  0.909552  0.329753  1
  O  O47  1  0.508440  0.590448  0.829753  1
  O  O48  1  0.796024  0.922200  0.959798  1
  O  O49  1  0.296024  0.077800  0.540202  1
  O  O50  1  0.612797  0.671877  0.996818  1
  O  O51  1  0.008440  0.409552  0.670247  1
  O  O52  1  0.228496  0.267049  0.185714  1
  O  O53  1  0.771504  0.732951  0.814286  1
  O  O54  1  0.908212  0.128677  0.523592  1
  O  O55  1  0.887178  0.312776  0.367076  1
  O  O56  1  0.387203  0.328123  0.003182  1
  O  O57  1  0.256046  0.484998  0.274826  1
  O  O58  1  0.728496  0.732951  0.314286  1
  O  O59  1  0.756046  0.515002  0.225174  1
  O  O60  1  0.408212  0.871323  0.976408  1
  O  O61  1  0.256046  0.984998  0.225174  1
  O  O62  1  0.408212  0.371323  0.523592  1
  O  O63  1  0.296024  0.577800  0.959798  1
  O  O64  1  0.203976  0.077800  0.040202  1
  O  O65  1  0.387178  0.687224  0.132924  1
  O  O66  1  0.243954  0.484998  0.774826  1
  O  O67  1  0.387203  0.828123  0.496818  1
  O  O68  1  0.491560  0.409552  0.170247  1
  O  O69  1  0.887203  0.171877  0.003182  1
  O  O70  1  0.728496  0.232951  0.185714  1
  O  O71  1  0.271504  0.267049  0.685714  1
  O  O72  1  0.991560  0.590448  0.329753  1
  O  O73  1  0.900015  0.382100  0.873466  1
  O  O74  1  0.112822  0.187224  0.867076  1
  O  O75  1  0.591788  0.628677  0.476408  1
  O  O76  1  0.900015  0.882100  0.626534  1
  O  O77  1  0.099985  0.617900  0.126534  1
  O  O78  1  0.112797  0.828123  0.996818  1
  O  O79  1  0.703976  0.922200  0.459798  1
  O  O80  1  0.203976  0.577800  0.459798  1
  O  O81  1  0.400015  0.117900  0.873466  1
  O  O82  1  0.400015  0.617900  0.626534  1
  O  O83  1  0.591788  0.128677  0.023592  1
  O  O84  1  0.887178  0.812776  0.132924  1
  O  O85  1  0.599985  0.882100  0.126534  1
  O  O86  1  0.091788  0.371323  0.023592  1
  O  O87  1  0.703976  0.422200  0.040202  1
  O  O88  1  0.743954  0.015002  0.774826  1
  O  O89  1  0.243954  0.984998  0.725174  1
  O  O90  1  0.991560  0.090448  0.170247  1
  O  O91  1  0.008440  0.909552  0.829753  1
  O  O92  1  0.612822  0.812776  0.632924  1
  O  O93  1  0.612797  0.171877  0.503182  1
  O  O94  1  0.228496  0.767049  0.314286  1
  O  O95  1  0.112822  0.687224  0.632924  1
