# generated using pymatgen
data_Yb2Cu2O5
_symmetry_space_group_name_H-M   'P 1'
_cell_length_a   3.49334768
_cell_length_b   10.48215278
_cell_length_c   12.57077552
_cell_angle_alpha   90.00000000
_cell_angle_beta   90.00000000
_cell_angle_gamma   90.00000000
_symmetry_Int_Tables_number   1
_chemical_formula_structural   Yb2Cu2O5
_chemical_formula_sum   'Yb8 Cu8 O20'
_cell_volume   460.31419532
_cell_formula_units_Z   4
loop_
 _symmetry_equiv_pos_site_id
 _symmetry_equiv_pos_as_xyz
  1  'x, y, z'
loop_
 _atom_site_type_symbol
 _atom_site_label
 _atom_site_symmetry_multiplicity
 _atom_site_fract_x
 _atom_site_fract_y
 _atom_site_fract_z
 _atom_site_occupancy
  O  O0  1  0.323437  0.938915  0.016797  1
  O  O1  1  0.676563  0.061085  0.516798  1
  O  O2  1  0.176563  0.438915  0.016797  1
  O  O3  1  0.823437  0.561085  0.516798  1
  O  O4  1  0.666896  0.919260  0.246559  1
  O  O5  1  0.333104  0.080740  0.746559  1
  O  O6  1  0.833104  0.419260  0.246559  1
  O  O7  1  0.166896  0.580740  0.746559  1
  O  O8  1  0.140591  0.624120  0.334304  1
  O  O9  1  0.859409  0.375880  0.834304  1
  O  O10  1  0.359409  0.124120  0.334304  1
  O  O11  1  0.640591  0.875880  0.834304  1
  O  O12  1  0.841156  0.831423  0.424570  1
  O  O13  1  0.158844  0.168577  0.924570  1
  O  O14  1  0.658844  0.331423  0.424570  1
  O  O15  1  0.341156  0.668577  0.924570  1
  O  O16  1  0.320928  0.810764  0.654301  1
  O  O17  1  0.679072  0.189236  0.154301  1
  O  O18  1  0.179072  0.310764  0.654301  1
  O  O19  1  0.820928  0.689236  0.154301  1
  Cu  Cu20  1  0.860652  0.761789  0.286364  1
  Cu  Cu21  1  0.139348  0.238211  0.786364  1
  Cu  Cu22  1  0.639348  0.261789  0.286364  1
  Cu  Cu23  1  0.360652  0.738211  0.786364  1
  Cu  Cu24  1  0.856715  0.488295  0.384262  1
  Cu  Cu25  1  0.143285  0.511705  0.884262  1
  Cu  Cu26  1  0.643285  0.988295  0.384262  1
  Cu  Cu27  1  0.356715  0.011705  0.884262  1
  Yb  Yb28  1  0.318338  0.546455  0.167542  1
  Yb  Yb29  1  0.681662  0.453545  0.667542  1
  Yb  Yb30  1  0.181662  0.046455  0.167542  1
  Yb  Yb31  1  0.818338  0.953545  0.667542  1
  Yb  Yb32  1  0.323080  0.703921  0.499900  1
  Yb  Yb33  1  0.676920  0.296079  -0.000100  1
  Yb  Yb34  1  0.176920  0.203921  0.499900  1
  Yb  Yb35  1  0.823080  0.796079  -0.000100  1
