# generated using pymatgen
data_Yb2MoO6
_symmetry_space_group_name_H-M   'P 1'
_cell_length_a   5.46551941
_cell_length_b   9.75011980
_cell_length_c   9.75011958
_cell_angle_alpha   72.20492909
_cell_angle_beta   76.06702708
_cell_angle_gamma   76.06701947
_symmetry_Int_Tables_number   1
_chemical_formula_structural   Yb2MoO6
_chemical_formula_sum   'Yb8 Mo4 O24'
_cell_volume   472.24010917
_cell_formula_units_Z   4
loop_
 _symmetry_equiv_pos_site_id
 _symmetry_equiv_pos_as_xyz
  1  'x, y, z'
loop_
 _atom_site_type_symbol
 _atom_site_label
 _atom_site_symmetry_multiplicity
 _atom_site_fract_x
 _atom_site_fract_y
 _atom_site_fract_z
 _atom_site_occupancy
  Yb  Yb0  1  0.750000  0.874091  0.125909  1
  Yb  Yb1  1  0.397216  0.212122  0.443370  1
  Yb  Yb2  1  0.750000  0.364684  0.635316  1
  Yb  Yb3  1  0.602784  0.787878  0.556630  1
  Yb  Yb4  1  0.102784  0.556630  0.787878  1
  Yb  Yb5  1  0.250000  0.635316  0.364684  1
  Yb  Yb6  1  0.250000  0.125909  0.874091  1
  Yb  Yb7  1  0.897216  0.443370  0.212122  1
  Mo  Mo8  1  0.578775  0.295011  0.011650  1
  Mo  Mo9  1  0.921225  0.988350  0.704989  1
  Mo  Mo10  1  0.078775  0.011650  0.295011  1
  Mo  Mo11  1  0.421225  0.704989  0.988350  1
  O  O12  1  0.901264  0.830371  0.343812  1
  O  O13  1  0.026886  0.047462  0.112857  1
  O  O14  1  0.124843  0.679559  0.122368  1
  O  O15  1  0.875157  0.320441  0.877632  1
  O  O16  1  0.559015  0.420030  0.431884  1
  O  O17  1  0.526886  0.112857  0.047462  1
  O  O18  1  0.059015  0.431884  0.420030  1
  O  O19  1  0.762312  0.020533  0.432983  1
  O  O20  1  0.737688  0.567017  0.979467  1
  O  O21  1  0.373863  0.698840  0.811664  1
  O  O22  1  0.626137  0.301160  0.188336  1
  O  O23  1  0.473114  0.887142  0.952538  1
  O  O24  1  0.440985  0.579970  0.568116  1
  O  O25  1  0.401264  0.343812  0.830371  1
  O  O26  1  0.098736  0.169629  0.656188  1
  O  O27  1  0.598736  0.656188  0.169629  1
  O  O28  1  0.262312  0.432983  0.020533  1
  O  O29  1  0.624843  0.122368  0.679559  1
  O  O30  1  0.873863  0.811664  0.698840  1
  O  O31  1  0.126137  0.188336  0.301160  1
  O  O32  1  0.237688  0.979467  0.567017  1
  O  O33  1  0.375157  0.877632  0.320441  1
  O  O34  1  0.940985  0.568116  0.579970  1
  O  O35  1  0.973114  0.952538  0.887142  1
