# generated using pymatgen
data_Yb2(WO4)3
_symmetry_space_group_name_H-M   'P 1'
_cell_length_a   10.37662930
_cell_length_b   14.15484553
_cell_length_c   10.29581773
_cell_angle_alpha   90.00000000
_cell_angle_beta   90.00000000
_cell_angle_gamma   90.00000000
_symmetry_Int_Tables_number   1
_chemical_formula_structural   Yb2(WO4)3
_chemical_formula_sum   'Yb8 W12 O48'
_cell_volume   1512.24543401
_cell_formula_units_Z   4
loop_
 _symmetry_equiv_pos_site_id
 _symmetry_equiv_pos_as_xyz
  1  'x, y, z'
loop_
 _atom_site_type_symbol
 _atom_site_label
 _atom_site_symmetry_multiplicity
 _atom_site_fract_x
 _atom_site_fract_y
 _atom_site_fract_z
 _atom_site_occupancy
  Yb  Yb0  1  0.039206  0.621239  0.248662  1
  Yb  Yb1  1  0.039206  0.878761  0.748662  1
  Yb  Yb2  1  0.460794  0.121239  0.748662  1
  Yb  Yb3  1  0.460794  0.378761  0.248662  1
  Yb  Yb4  1  0.539206  0.878761  0.251338  1
  Yb  Yb5  1  0.539206  0.621239  0.751338  1
  Yb  Yb6  1  0.960794  0.121239  0.251338  1
  Yb  Yb7  1  0.960794  0.378761  0.751338  1
  W  W8  1  0.113906  0.355621  0.398897  1
  W  W9  1  0.113906  0.144379  0.898897  1
  W  W10  1  0.250000  0.000000  0.467771  1
  W  W11  1  0.250000  0.500000  0.967771  1
  W  W12  1  0.386094  0.644379  0.398897  1
  W  W13  1  0.386094  0.855621  0.898897  1
  W  W14  1  0.613906  0.144379  0.101103  1
  W  W15  1  0.613906  0.355621  0.601103  1
  W  W16  1  0.750000  0.000000  0.532229  1
  W  W17  1  0.750000  0.500000  0.032229  1
  W  W18  1  0.886094  0.855621  0.101103  1
  W  W19  1  0.886094  0.644379  0.601103  1
  O  O20  1  0.993562  0.769605  0.173054  1
  O  O21  1  0.993562  0.730395  0.673054  1
  O  O22  1  0.077180  0.027475  0.835780  1
  O  O23  1  0.077180  0.472525  0.335780  1
  O  O24  1  0.092999  0.145032  0.073500  1
  O  O25  1  0.092999  0.354968  0.573500  1
  O  O26  1  0.132645  0.060830  0.367022  1
  O  O27  1  0.132645  0.439170  0.867022  1
  O  O28  1  0.166741  0.916181  0.570447  1
  O  O29  1  0.166741  0.583819  0.070447  1
  O  O30  1  0.221085  0.826838  0.857168  1
  O  O31  1  0.221085  0.673162  0.357168  1
  O  O32  1  0.278915  0.173162  0.857168  1
  O  O33  1  0.278915  0.326838  0.357168  1
  O  O34  1  0.333259  0.083819  0.570447  1
  O  O35  1  0.333259  0.416181  0.070447  1
  O  O36  1  0.367355  0.560830  0.867022  1
  O  O37  1  0.367355  0.939170  0.367022  1
  O  O38  1  0.407001  0.645032  0.573500  1
  O  O39  1  0.407001  0.854968  0.073500  1
  O  O40  1  0.422820  0.527475  0.335780  1
  O  O41  1  0.422820  0.972525  0.835780  1
  O  O42  1  0.506438  0.269605  0.673054  1
  O  O43  1  0.506438  0.230395  0.173054  1
  O  O44  1  0.493562  0.730395  0.326946  1
  O  O45  1  0.493562  0.769605  0.826946  1
  O  O46  1  0.577180  0.027475  0.164220  1
  O  O47  1  0.577180  0.472525  0.664220  1
  O  O48  1  0.592999  0.354968  0.426500  1
  O  O49  1  0.592999  0.145032  0.926500  1
  O  O50  1  0.632645  0.060830  0.632978  1
  O  O51  1  0.632645  0.439170  0.132978  1
  O  O52  1  0.666741  0.916181  0.429553  1
  O  O53  1  0.666741  0.583819  0.929553  1
  O  O54  1  0.721085  0.673162  0.642832  1
  O  O55  1  0.721085  0.826838  0.142832  1
  O  O56  1  0.778915  0.173162  0.142832  1
  O  O57  1  0.778915  0.326838  0.642832  1
  O  O58  1  0.833259  0.416181  0.929553  1
  O  O59  1  0.833259  0.083819  0.429553  1
  O  O60  1  0.867355  0.939170  0.632978  1
  O  O61  1  0.867355  0.560830  0.132978  1
  O  O62  1  0.907001  0.854968  0.926500  1
  O  O63  1  0.907001  0.645032  0.426500  1
  O  O64  1  0.922820  0.972525  0.164220  1
  O  O65  1  0.922820  0.527475  0.664220  1
  O  O66  1  0.006438  0.230395  0.826946  1
  O  O67  1  0.006438  0.269605  0.326946  1
