# generated using pymatgen
data_Yb2WO6
_symmetry_space_group_name_H-M   'P 1'
_cell_length_a   5.63634211
_cell_length_b   7.64407972
_cell_length_c   11.16999450
_cell_angle_alpha   100.55348815
_cell_angle_beta   90.00000000
_cell_angle_gamma   90.00000000
_symmetry_Int_Tables_number   1
_chemical_formula_structural   Yb2WO6
_chemical_formula_sum   'Yb8 W4 O24'
_cell_volume   473.11454204
_cell_formula_units_Z   4
loop_
 _symmetry_equiv_pos_site_id
 _symmetry_equiv_pos_as_xyz
  1  'x, y, z'
loop_
 _atom_site_type_symbol
 _atom_site_label
 _atom_site_symmetry_multiplicity
 _atom_site_fract_x
 _atom_site_fract_y
 _atom_site_fract_z
 _atom_site_occupancy
  O  O0  1  0.457608  0.783406  0.251337  1
  O  O1  1  0.457608  0.216594  0.248663  1
  O  O2  1  0.542392  0.216594  0.748663  1
  O  O3  1  0.542392  0.783406  0.751337  1
  O  O4  1  0.029001  0.924497  0.103491  1
  O  O5  1  0.029001  0.075503  0.396509  1
  O  O6  1  0.970999  0.075503  0.896509  1
  O  O7  1  0.970999  0.924497  0.603491  1
  O  O8  1  0.983611  0.711368  0.212144  1
  O  O9  1  0.983611  0.288631  0.287856  1
  O  O10  1  0.016389  0.288631  0.787856  1
  O  O11  1  0.016389  0.711368  0.712144  1
  O  O12  1  0.835459  0.651568  0.436783  1
  O  O13  1  0.835459  0.348432  0.063217  1
  O  O14  1  0.164541  0.348432  0.563217  1
  O  O15  1  0.164541  0.651568  0.936783  1
  O  O16  1  0.659433  0.480293  0.610477  1
  O  O17  1  0.659433  0.519707  0.889523  1
  O  O18  1  0.340567  0.519707  0.389523  1
  O  O19  1  0.340567  0.480293  0.110477  1
  O  O20  1  0.483193  0.854810  0.567843  1
  O  O21  1  0.483193  0.145190  0.932157  1
  O  O22  1  0.516807  0.145190  0.432157  1
  O  O23  1  0.516807  0.854810  0.067843  1
  Yb  Yb24  1  0.187791  0.800975  0.415751  1
  Yb  Yb25  1  0.187791  0.199025  0.084249  1
  Yb  Yb26  1  0.812209  0.199025  0.584249  1
  Yb  Yb27  1  0.812209  0.800975  0.915751  1
  Yb  Yb28  1  0.668875  0.500000  0.250000  1
  Yb  Yb29  1  0.331125  0.500000  0.750000  1
  Yb  Yb30  1  0.736277  0.000000  0.250000  1
  Yb  Yb31  1  0.263723  0.000000  0.750000  1
  W  W32  1  0.250502  0.709537  0.099734  1
  W  W33  1  0.250502  0.290463  0.400266  1
  W  W34  1  0.749498  0.290463  0.900266  1
  W  W35  1  0.749498  0.709537  0.599734  1
