# generated using pymatgen
data_Yb4Zr3O12
_symmetry_space_group_name_H-M   'P 1'
_cell_length_a   6.47651914
_cell_length_b   6.39033862
_cell_length_c   12.87563003
_cell_angle_alpha   98.54294754
_cell_angle_beta   99.16110528
_cell_angle_gamma   100.29842924
_symmetry_Int_Tables_number   1
_chemical_formula_structural   Yb4Zr3O12
_chemical_formula_sum   'Yb8 Zr6 O24'
_cell_volume   508.94555160
_cell_formula_units_Z   2
loop_
 _symmetry_equiv_pos_site_id
 _symmetry_equiv_pos_as_xyz
  1  'x, y, z'
loop_
 _atom_site_type_symbol
 _atom_site_label
 _atom_site_symmetry_multiplicity
 _atom_site_fract_x
 _atom_site_fract_y
 _atom_site_fract_z
 _atom_site_occupancy
  Yb  Yb0  1  0.141089  0.609495  0.649613  1
  Yb  Yb1  1  0.394639  0.705002  0.932338  1
  Yb  Yb2  1  0.392827  0.712224  0.432079  1
  Yb  Yb3  1  0.285444  0.138624  0.302988  1
  Yb  Yb4  1  0.605361  0.294998  0.567662  1
  Yb  Yb5  1  0.714556  0.861376  0.197012  1
  Yb  Yb6  1  0.858911  0.390505  0.850387  1
  Yb  Yb7  1  0.607173  0.287776  0.067921  1
  Zr  Zr8  1  0.010727  0.003293  0.500452  1
  Zr  Zr9  1  0.139645  0.622066  0.143386  1
  Zr  Zr10  1  0.989273  0.996707  0.999548  1
  Zr  Zr11  1  0.291193  0.143615  0.807847  1
  Zr  Zr12  1  0.708807  0.856385  0.692153  1
  Zr  Zr13  1  0.860355  0.377934  0.356614  1
  O  O14  1  0.057359  0.677730  0.975657  1
  O  O15  1  0.079249  0.964274  0.662627  1
  O  O16  1  0.031826  0.676877  0.459707  1
  O  O17  1  0.187101  0.422603  0.790278  1
  O  O18  1  0.070403  0.929723  0.155653  1
  O  O19  1  0.302636  0.061451  0.959268  1
  O  O20  1  0.152195  0.446511  0.280348  1
  O  O21  1  0.441414  0.844218  0.777244  1
  O  O22  1  0.459102  0.601379  0.593052  1
  O  O23  1  0.313373  0.059287  0.471893  1
  O  O24  1  0.403570  0.809948  0.268002  1
  O  O25  1  0.540898  0.398621  0.906948  1
  O  O26  1  0.426808  0.578774  0.099362  1
  O  O27  1  0.558586  0.155782  0.722756  1
  O  O28  1  0.697364  0.938549  0.540732  1
  O  O29  1  0.573192  0.421226  0.400638  1
  O  O30  1  0.596430  0.190052  0.231998  1
  O  O31  1  0.812899  0.577397  0.709722  1
  O  O32  1  0.686627  0.940713  0.028107  1
  O  O33  1  0.920751  0.035726  0.837373  1
  O  O34  1  0.847805  0.553489  0.219652  1
  O  O35  1  0.942641  0.322270  0.524343  1
  O  O36  1  0.929597  0.070277  0.344347  1
  O  O37  1  0.968174  0.323123  0.040293  1
