# generated using pymatgen
data_Zn53Ni16
_symmetry_space_group_name_H-M   'P 1'
_cell_length_a   7.67902849
_cell_length_b   7.67902773
_cell_length_c   33.32697827
_cell_angle_alpha   90.00000000
_cell_angle_beta   90.00000000
_cell_angle_gamma   109.26495886
_symmetry_Int_Tables_number   1
_chemical_formula_structural   Zn53Ni16
_chemical_formula_sum   'Zn106 Ni32'
_cell_volume   1855.16177476
_cell_formula_units_Z   2
loop_
 _symmetry_equiv_pos_site_id
 _symmetry_equiv_pos_as_xyz
  1  'x, y, z'
loop_
 _atom_site_type_symbol
 _atom_site_label
 _atom_site_symmetry_multiplicity
 _atom_site_fract_x
 _atom_site_fract_y
 _atom_site_fract_z
 _atom_site_occupancy
  Zn  Zn0  1  0.406165  0.554711  0.972850  1
  Zn  Zn1  1  0.060798  0.916407  0.351561  1
  Zn  Zn2  1  0.675592  0.175592  0.826404  1
  Zn  Zn3  1  0.115829  0.615829  0.863704  1
  Zn  Zn4  1  0.429635  0.571924  0.458192  1
  Zn  Zn5  1  0.093031  0.593031  0.096396  1
  Zn  Zn6  1  0.101719  0.601719  0.478166  1
  Zn  Zn7  1  0.707516  0.835877  0.226571  1
  Zn  Zn8  1  0.542277  0.801726  0.030290  1
  Zn  Zn9  1  0.329525  0.053241  0.404019  1
  Zn  Zn10  1  0.224841  0.368696  0.664224  1
  Zn  Zn11  1  0.835877  0.707516  0.773429  1
  Zn  Zn12  1  0.140829  0.640829  0.249974  1
  Zn  Zn13  1  0.583280  0.454012  0.907352  1
  Zn  Zn14  1  0.710339  0.853228  0.957831  1
  Zn  Zn15  1  0.776053  0.526580  0.841745  1
  Zn  Zn16  1  0.175592  0.675592  0.173596  1
  Zn  Zn17  1  0.721261  0.866085  0.851487  1
  Zn  Zn18  1  0.227418  0.376709  0.526990  1
  Zn  Zn19  1  0.413671  0.557232  0.835612  1
  Zn  Zn20  1  0.075420  0.947815  0.725958  1
  Zn  Zn21  1  0.590819  0.090819  0.286000  1
  Zn  Zn22  1  0.189884  0.689884  0.403638  1
  Zn  Zn23  1  0.913671  0.057232  0.164388  1
  Zn  Zn24  1  0.680480  0.180480  0.978322  1
  Zn  Zn25  1  0.916407  0.060798  0.648439  1
  Zn  Zn26  1  0.071924  0.929635  0.458192  1
  Zn  Zn27  1  0.090819  0.590819  0.714000  1
  Zn  Zn28  1  0.801726  0.542277  0.969710  1
  Zn  Zn29  1  0.329387  0.199709  0.592298  1
  Zn  Zn30  1  0.691990  0.191990  0.214177  1
  Zn  Zn31  1  0.256963  0.007136  0.657858  1
  Zn  Zn32  1  0.699709  0.829387  0.592298  1
  Zn  Zn33  1  0.226111  0.959574  0.281858  1
  Zn  Zn34  1  0.726111  0.459574  0.718142  1
  Zn  Zn35  1  0.929635  0.071924  0.541808  1
  Zn  Zn36  1  0.553241  0.829525  0.404019  1
  Zn  Zn37  1  0.507136  0.756963  0.657858  1
  Zn  Zn38  1  0.628091  0.128091  0.059429  1
  Zn  Zn39  1  0.740189  0.479773  0.469699  1
  Zn  Zn40  1  0.321698  0.056736  0.781620  1
  Zn  Zn41  1  0.829387  0.699709  0.407702  1
  Zn  Zn42  1  0.876709  0.727418  0.526990  1
  Zn  Zn43  1  0.056736  0.321698  0.218380  1
  Zn  Zn44  1  0.724841  0.868696  0.335776  1
  Zn  Zn45  1  0.575420  0.447815  0.274042  1
  Zn  Zn46  1  0.301726  0.042277  0.030290  1
  Zn  Zn47  1  0.593031  0.093031  0.903604  1
  Zn  Zn48  1  0.601719  0.101719  0.521834  1
  Zn  Zn49  1  0.727418  0.876709  0.473010  1
  Zn  Zn50  1  0.829525  0.553241  0.595981  1
  Zn  Zn51  1  0.560798  0.416407  0.648439  1
  Zn  Zn52  1  0.153741  0.653741  0.559549  1
  Zn  Zn53  1  0.368696  0.224841  0.335776  1
  Zn  Zn54  1  0.199709  0.329387  0.407702  1
  Zn  Zn55  1  0.128091  0.628091  0.940571  1
  Zn  Zn56  1  0.053241  0.329525  0.595981  1
  Zn  Zn57  1  0.729423  0.451885  0.096149  1
  Zn  Zn58  1  0.229423  0.951885  0.903851  1
  Zn  Zn59  1  0.180480  0.680480  0.021678  1
  Zn  Zn60  1  0.376709  0.227418  0.473010  1
  Zn  Zn61  1  0.240189  0.979773  0.530301  1
  Zn  Zn62  1  0.454012  0.583280  0.092648  1
  Zn  Zn63  1  0.083280  0.954012  0.092648  1
  Zn  Zn64  1  0.107469  0.607469  0.326484  1
  Zn  Zn65  1  0.166888  0.666888  0.636213  1
  Zn  Zn66  1  0.353228  0.210339  0.957831  1
  Zn  Zn67  1  0.653741  0.153741  0.440451  1
  Zn  Zn68  1  0.571924  0.429635  0.541808  1
  Zn  Zn69  1  0.054711  0.906165  0.972850  1
  Zn  Zn70  1  0.191990  0.691990  0.785823  1
  Zn  Zn71  1  0.906165  0.054711  0.027150  1
  Zn  Zn72  1  0.526580  0.776053  0.158255  1
  Zn  Zn73  1  0.689884  0.189884  0.596362  1
  Zn  Zn74  1  0.853228  0.710339  0.042169  1
  Zn  Zn75  1  0.276053  0.026580  0.158255  1
  Zn  Zn76  1  0.459574  0.726111  0.281858  1
  Zn  Zn77  1  0.416407  0.560798  0.351561  1
  Zn  Zn78  1  0.207516  0.335877  0.773429  1
  Zn  Zn79  1  0.221261  0.366085  0.148513  1
  Zn  Zn80  1  0.366085  0.221261  0.851487  1
  Zn  Zn81  1  0.821698  0.556736  0.218380  1
  Zn  Zn82  1  0.607469  0.107469  0.673516  1
  Zn  Zn83  1  0.210339  0.353228  0.042169  1
  Zn  Zn84  1  0.947815  0.075420  0.274042  1
  Zn  Zn85  1  0.756963  0.507136  0.342142  1
  Zn  Zn86  1  0.451885  0.729423  0.903851  1
  Zn  Zn87  1  0.007136  0.256963  0.342142  1
  Zn  Zn88  1  0.556736  0.821698  0.781620  1
  Zn  Zn89  1  0.666888  0.166888  0.363787  1
  Zn  Zn90  1  0.640829  0.140829  0.750026  1
  Zn  Zn91  1  0.042277  0.301726  0.969710  1
  Zn  Zn92  1  0.479773  0.740189  0.530301  1
  Zn  Zn93  1  0.057232  0.913671  0.835612  1
  Zn  Zn94  1  0.026580  0.276053  0.841745  1
  Zn  Zn95  1  0.554711  0.406165  0.027150  1
  Zn  Zn96  1  0.615829  0.115829  0.136296  1
  Zn  Zn97  1  0.954012  0.083280  0.907352  1
  Zn  Zn98  1  0.959574  0.226111  0.718142  1
  Zn  Zn99  1  0.868696  0.724841  0.664224  1
  Zn  Zn100  1  0.979773  0.240189  0.469699  1
  Zn  Zn101  1  0.557232  0.413671  0.164388  1
  Zn  Zn102  1  0.335877  0.207516  0.226571  1
  Zn  Zn103  1  0.447815  0.575420  0.725958  1
  Zn  Zn104  1  0.866085  0.721261  0.148513  1
  Zn  Zn105  1  0.951885  0.229423  0.096149  1
  Ni  Ni106  1  0.885321  0.385321  0.531431  1
  Ni  Ni107  1  0.874611  0.374611  0.906199  1
  Ni  Ni108  1  0.732607  0.882139  0.715240  1
  Ni  Ni109  1  0.909473  0.409473  0.780349  1
  Ni  Ni110  1  0.382139  0.232607  0.715240  1
  Ni  Ni111  1  0.400848  0.550062  0.215528  1
  Ni  Ni112  1  0.395056  0.895056  0.842392  1
  Ni  Ni113  1  0.408153  0.908153  0.593617  1
  Ni  Ni114  1  0.409473  0.909473  0.219651  1
  Ni  Ni115  1  0.396956  0.896956  0.968585  1
  Ni  Ni116  1  0.373155  0.873155  0.719398  1
  Ni  Ni117  1  0.236098  0.382493  0.904691  1
  Ni  Ni118  1  0.908153  0.408153  0.406383  1
  Ni  Ni119  1  0.400435  0.546474  0.595144  1
  Ni  Ni120  1  0.385321  0.885321  0.468569  1
  Ni  Ni121  1  0.882493  0.736098  0.904691  1
  Ni  Ni122  1  0.546474  0.400435  0.404856  1
  Ni  Ni123  1  0.873155  0.373155  0.280602  1
  Ni  Ni124  1  0.050062  0.900848  0.215528  1
  Ni  Ni125  1  0.900435  0.046474  0.404856  1
  Ni  Ni126  1  0.887733  0.387733  0.657250  1
  Ni  Ni127  1  0.882139  0.732607  0.284760  1
  Ni  Ni128  1  0.046474  0.900435  0.595144  1
  Ni  Ni129  1  0.387733  0.887733  0.342751  1
  Ni  Ni130  1  0.382493  0.236098  0.095309  1
  Ni  Ni131  1  0.900848  0.050062  0.784472  1
  Ni  Ni132  1  0.896956  0.396956  0.031415  1
  Ni  Ni133  1  0.232607  0.382139  0.284760  1
  Ni  Ni134  1  0.374611  0.874611  0.093801  1
  Ni  Ni135  1  0.736098  0.882493  0.095309  1
  Ni  Ni136  1  0.895056  0.395056  0.157608  1
  Ni  Ni137  1  0.550062  0.400848  0.784472  1
