# generated using pymatgen
data_Zn5B3Ir7
_symmetry_space_group_name_H-M   'P 1'
_cell_length_a   2.82277476
_cell_length_b   11.46564306
_cell_length_c   12.24320074
_cell_angle_alpha   89.99304881
_cell_angle_beta   90.00002112
_cell_angle_gamma   89.99998451
_symmetry_Int_Tables_number   1
_chemical_formula_structural   Zn5B3Ir7
_chemical_formula_sum   'Zn10 B6 Ir14'
_cell_volume   396.25030530
_cell_formula_units_Z   2
loop_
 _symmetry_equiv_pos_site_id
 _symmetry_equiv_pos_as_xyz
  1  'x, y, z'
loop_
 _atom_site_type_symbol
 _atom_site_label
 _atom_site_symmetry_multiplicity
 _atom_site_fract_x
 _atom_site_fract_y
 _atom_site_fract_z
 _atom_site_occupancy
  Zn  Zn0  1  0.500000  0.936799  0.157221  1
  Zn  Zn1  1  0.500000  0.563206  0.157121  1
  Zn  Zn2  1  0.500000  0.365682  0.639229  1
  Zn  Zn3  1  0.500000  0.134368  0.639195  1
  Zn  Zn4  1  0.500000  0.063169  0.842954  1
  Zn  Zn5  1  0.500000  0.436824  0.843051  1
  Zn  Zn6  1  0.500000  0.750010  0.034225  1
  Zn  Zn7  1  0.500000  0.865612  0.360897  1
  Zn  Zn8  1  0.500000  0.634330  0.360859  1
  Zn  Zn9  1  0.500000  0.250002  0.965992  1
  B  B10  1  0.500000  0.880799  0.588837  1
  B  B11  1  0.500000  0.380841  0.411081  1
  B  B12  1  0.499999  0.249989  0.226256  1
  B  B13  1  0.500000  0.119170  0.411096  1
  B  B14  1  0.500000  0.619179  0.588814  1
  B  B15  1  0.500000  0.749992  0.774015  1
  Ir  Ir16  1  -0.000000  0.593479  0.942421  1
  Ir  Ir17  1  0.000001  0.886807  0.724199  1
  Ir  Ir18  1  -0.000000  0.906559  0.942410  1
  Ir  Ir19  1  0.000001  0.250001  0.475375  1
  Ir  Ir20  1  -0.000000  0.250016  0.784322  1
  Ir  Ir21  1  0.000000  0.407003  0.057232  1
  Ir  Ir22  1  0.000000  0.613201  0.724213  1
  Ir  Ir23  1  1.000000  0.113153  0.275677  1
  Ir  Ir24  1  0.000000  0.386821  0.275626  1
  Ir  Ir25  1  0.000000  0.000037  0.500044  1
  Ir  Ir26  1  0.000000  0.749998  0.524525  1
  Ir  Ir27  1  0.000000  0.749982  0.215772  1
  Ir  Ir28  1  -0.000000  0.093019  0.057303  1
  Ir  Ir29  1  1.000000  0.499952  0.500035  1
