# generated using pymatgen
data_Zn5B3Rh7
_symmetry_space_group_name_H-M   'P 1'
_cell_length_a   2.86281917
_cell_length_b   11.13086820
_cell_length_c   11.84137178
_cell_angle_alpha   90.00000000
_cell_angle_beta   90.00000000
_cell_angle_gamma   90.00000000
_symmetry_Int_Tables_number   1
_chemical_formula_structural   Zn5B3Rh7
_chemical_formula_sum   'Zn10 B6 Rh14'
_cell_volume   377.33316096
_cell_formula_units_Z   2
loop_
 _symmetry_equiv_pos_site_id
 _symmetry_equiv_pos_as_xyz
  1  'x, y, z'
loop_
 _atom_site_type_symbol
 _atom_site_label
 _atom_site_symmetry_multiplicity
 _atom_site_fract_x
 _atom_site_fract_y
 _atom_site_fract_z
 _atom_site_occupancy
  Rh  Rh0  1  0.000000  0.000000  0.500000  1
  Rh  Rh1  1  0.000000  0.500000  0.500000  1
  Rh  Rh2  1  0.000000  0.750000  0.182005  1
  Rh  Rh3  1  0.000000  0.250000  0.817995  1
  Rh  Rh4  1  0.000000  0.750000  0.528018  1
  Rh  Rh5  1  0.000000  0.250000  0.471982  1
  Rh  Rh6  1  0.000000  0.873690  0.962506  1
  Rh  Rh7  1  0.000000  0.126310  0.037495  1
  Rh  Rh8  1  0.000000  0.373690  0.037495  1
  Rh  Rh9  1  0.000000  0.626310  0.962506  1
  Rh  Rh10  1  0.000000  0.923215  0.720568  1
  Rh  Rh11  1  0.000000  0.076785  0.279432  1
  Rh  Rh12  1  0.000000  0.423215  0.279432  1
  Rh  Rh13  1  0.000000  0.576785  0.720568  1
  Zn  Zn14  1  0.500000  0.750000  0.808731  1
  Zn  Zn15  1  0.500000  0.250000  0.191269  1
  Zn  Zn16  1  0.500000  0.451138  0.866326  1
  Zn  Zn17  1  0.500000  0.548862  0.133674  1
  Zn  Zn18  1  0.500000  0.951138  0.133674  1
  Zn  Zn19  1  0.500000  0.048862  0.866326  1
  Zn  Zn20  1  0.500000  0.369166  0.650948  1
  Zn  Zn21  1  0.500000  0.630834  0.349052  1
  Zn  Zn22  1  0.500000  0.869166  0.349052  1
  Zn  Zn23  1  0.500000  0.130834  0.650948  1
  B  B24  1  0.500000  0.750000  0.040343  1
  B  B25  1  0.500000  0.250000  0.959657  1
  B  B26  1  0.500000  0.883306  0.593738  1
  B  B27  1  0.500000  0.116694  0.406262  1
  B  B28  1  0.500000  0.383306  0.406262  1
  B  B29  1  0.500000  0.616694  0.593738  1
