# generated using pymatgen
data_Zn(FeO2)2
_symmetry_space_group_name_H-M   'P 1'
_cell_length_a   6.02339654
_cell_length_b   6.01606317
_cell_length_c   29.99296786
_cell_angle_alpha   60.22872278
_cell_angle_beta   60.04985881
_cell_angle_gamma   59.62798615
_symmetry_Int_Tables_number   1
_chemical_formula_structural   Zn(FeO2)2
_chemical_formula_sum   'Zn10 Fe20 O40'
_cell_volume   767.93827959
_cell_formula_units_Z   10
loop_
 _symmetry_equiv_pos_site_id
 _symmetry_equiv_pos_as_xyz
  1  'x, y, z'
loop_
 _atom_site_type_symbol
 _atom_site_label
 _atom_site_symmetry_multiplicity
 _atom_site_fract_x
 _atom_site_fract_y
 _atom_site_fract_z
 _atom_site_occupancy
  Zn  Zn0  1  0.137571  0.126107  0.022237  1
  Zn  Zn1  1  0.134103  0.125192  0.223933  1
  Zn  Zn2  1  0.134839  0.120679  0.423857  1
  Zn  Zn3  1  0.002798  0.502328  0.099234  1
  Zn  Zn4  1  0.003086  0.499851  0.299314  1
  Zn  Zn5  1  0.497222  0.999442  0.701041  1
  Zn  Zn6  1  0.998324  0.498295  0.500527  1
  Zn  Zn7  1  0.998128  0.497114  0.701136  1
  Zn  Zn8  1  0.497366  0.001022  0.900194  1
  Zn  Zn9  1  0.002801  0.497626  0.899777  1
  Fe  Fe10  1  0.497845  0.497165  -0.000193  1
  Fe  Fe11  1  0.497032  0.501051  0.098806  1
  Fe  Fe12  1  0.498278  0.006393  0.099508  1
  Fe  Fe13  1  0.497545  0.496976  0.201255  1
  Fe  Fe14  1  0.500068  0.499149  0.298919  1
  Fe  Fe15  1  0.865167  0.881585  0.175346  1
  Fe  Fe16  1  0.499017  0.003824  0.299595  1
  Fe  Fe17  1  0.495704  0.499695  0.401218  1
  Fe  Fe18  1  0.129796  0.128158  0.626035  1
  Fe  Fe19  1  0.497908  0.499198  0.500669  1
  Fe  Fe20  1  0.867541  0.878574  0.375225  1
  Fe  Fe21  1  0.496953  0.002588  0.500046  1
  Fe  Fe22  1  0.498745  0.501807  0.601599  1
  Fe  Fe23  1  0.134540  0.135092  0.822778  1
  Fe  Fe24  1  0.498733  0.499217  0.700667  1
  Fe  Fe25  1  0.860154  0.872530  0.578055  1
  Fe  Fe26  1  0.500935  0.501155  0.798814  1
  Fe  Fe27  1  0.498389  0.498638  0.898611  1
  Fe  Fe28  1  0.866322  0.866974  0.776681  1
  Fe  Fe29  1  0.866665  0.869297  0.975347  1
  O  O30  1  0.273687  0.251834  0.050600  1
  O  O31  1  0.272356  0.721291  0.049968  1
  O  O32  1  0.272895  0.256680  0.143872  1
  O  O33  1  0.266770  0.745694  0.149136  1
  O  O34  1  0.269721  0.257747  0.250528  1
  O  O35  1  0.725334  0.255106  0.051572  1
  O  O36  1  0.734046  0.273049  0.149356  1
  O  O37  1  0.733381  0.745453  0.054482  1
  O  O38  1  0.279098  0.247150  0.343655  1
  O  O39  1  0.269316  0.721741  0.251612  1
  O  O40  1  0.265347  0.738428  0.350278  1
  O  O41  1  0.269321  0.251460  0.452038  1
  O  O42  1  0.727536  0.260279  0.251685  1
  O  O43  1  0.732713  0.746778  0.150626  1
  O  O44  1  0.733918  0.270117  0.350332  1
  O  O45  1  0.728028  0.755067  0.254883  1
  O  O46  1  0.266071  0.249754  0.547618  1
  O  O47  1  0.266724  0.716701  0.453195  1
  O  O48  1  0.269022  0.741250  0.551328  1
  O  O49  1  0.267718  0.270599  0.647548  1
  O  O50  1  0.722055  0.253863  0.453748  1
  O  O51  1  0.734494  0.740032  0.351383  1
  O  O52  1  0.727793  0.271416  0.552812  1
  O  O53  1  0.731184  0.745927  0.454751  1
  O  O54  1  0.270446  0.270794  0.744259  1
  O  O55  1  0.272286  0.729360  0.650668  1
  O  O56  1  0.271736  0.726392  0.749476  1
  O  O57  1  0.271123  0.271301  0.845406  1
  O  O58  1  0.729812  0.275444  0.649970  1
  O  O59  1  0.726217  0.741525  0.551826  1
  O  O60  1  0.726806  0.271722  0.749123  1
  O  O61  1  0.730357  0.732363  0.654944  1
  O  O62  1  0.264700  0.264137  0.942436  1
  O  O63  1  0.277283  0.735239  0.846919  1
  O  O64  1  0.265164  0.729718  0.948561  1
  O  O65  1  0.734108  0.278517  0.846540  1
  O  O66  1  0.733592  0.734288  0.751456  1
  O  O67  1  0.742347  0.744550  0.853199  1
  O  O68  1  0.732934  0.265939  0.947312  1
  O  O69  1  0.738986  0.734572  0.950672  1
