# generated using pymatgen
data_Zn(FeO2)2
_symmetry_space_group_name_H-M   'P 1'
_cell_length_a   6.11272621
_cell_length_b   6.08756513
_cell_length_c   36.26618479
_cell_angle_alpha   60.51575549
_cell_angle_beta   58.97984831
_cell_angle_gamma   58.51704662
_symmetry_Int_Tables_number   1
_chemical_formula_structural   Zn(FeO2)2
_chemical_formula_sum   'Zn11 Fe22 O44'
_cell_volume   939.22044727
_cell_formula_units_Z   11
loop_
 _symmetry_equiv_pos_site_id
 _symmetry_equiv_pos_as_xyz
  1  'x, y, z'
loop_
 _atom_site_type_symbol
 _atom_site_label
 _atom_site_symmetry_multiplicity
 _atom_site_fract_x
 _atom_site_fract_y
 _atom_site_fract_z
 _atom_site_occupancy
  Zn  Zn0  1  0.102704  0.092109  0.016271  1
  Zn  Zn1  1  0.544155  0.984077  0.084704  1
  Zn  Zn2  1  0.542671  0.987284  0.250775  1
  Zn  Zn3  1  0.113998  0.091134  0.508778  1
  Zn  Zn4  1  0.545894  0.988443  0.416494  1
  Zn  Zn5  1  0.517256  0.984908  0.587183  1
  Zn  Zn6  1  0.140190  0.119444  0.686633  1
  Zn  Zn7  1  0.003630  0.496558  0.749893  1
  Zn  Zn8  1  0.140871  0.120386  0.853864  1
  Zn  Zn9  1  0.994613  0.512495  0.585881  1
  Zn  Zn10  1  0.000748  0.504291  0.915622  1
  Fe  Fe11  1  0.508812  0.532267  0.999029  1
  Fe  Fe12  1  0.115942  0.079750  0.180654  1
  Fe  Fe13  1  0.476798  0.510832  0.086262  1
  Fe  Fe14  1  0.121011  0.087309  0.344895  1
  Fe  Fe15  1  0.545510  0.522659  0.162118  1
  Fe  Fe16  1  0.482330  0.511312  0.252416  1
  Fe  Fe17  1  0.857903  0.878860  0.148790  1
  Fe  Fe18  1  0.547306  0.525042  0.327534  1
  Fe  Fe19  1  0.481314  0.505750  0.418200  1
  Fe  Fe20  1  0.856482  0.876093  0.315620  1
  Fe  Fe21  1  0.554035  0.517839  0.493282  1
  Fe  Fe22  1  0.499363  0.497028  0.582658  1
  Fe  Fe23  1  0.870051  0.873864  0.481388  1
  Fe  Fe24  1  0.500574  0.490015  0.668419  1
  Fe  Fe25  1  0.496852  0.495583  0.749940  1
  Fe  Fe26  1  0.867578  0.875592  0.648158  1
  Fe  Fe27  1  0.495415  0.508305  0.834337  1
  Fe  Fe28  1  0.498493  0.001383  0.750360  1
  Fe  Fe29  1  0.494178  0.502846  0.917509  1
  Fe  Fe30  1  0.860410  0.877502  0.812930  1
  Fe  Fe31  1  0.502890  0.015751  0.914347  1
  Fe  Fe32  1  0.853402  0.885036  0.980735  1
  O  O33  1  0.282001  0.248013  0.121130  1
  O  O34  1  0.264635  0.719449  0.042976  1
  O  O35  1  0.716069  0.279647  0.041026  1
  O  O36  1  0.260949  0.739140  0.128909  1
  O  O37  1  0.681550  0.785085  0.042888  1
  O  O38  1  0.700238  0.268677  0.128914  1
  O  O39  1  0.276378  0.718065  0.207567  1
  O  O40  1  0.281038  0.250276  0.285456  1
  O  O41  1  0.737589  0.268582  0.207232  1
  O  O42  1  0.761885  0.742186  0.125036  1
  O  O43  1  0.258929  0.737487  0.295784  1
  O  O44  1  0.684834  0.775523  0.211703  1
  O  O45  1  0.703168  0.267710  0.295334  1
  O  O46  1  0.287887  0.257675  0.449045  1
  O  O47  1  0.278009  0.724895  0.372813  1
  O  O48  1  0.743807  0.271635  0.372308  1
  O  O49  1  0.764039  0.743219  0.290965  1
  O  O50  1  0.265350  0.726617  0.462526  1
  O  O51  1  0.708920  0.257040  0.462101  1
  O  O52  1  0.680431  0.774187  0.378765  1
  O  O53  1  0.268373  0.706819  0.542072  1
  O  O54  1  0.265500  0.264418  0.618972  1
  O  O55  1  0.724832  0.254626  0.541391  1
  O  O56  1  0.757002  0.745788  0.459369  1
  O  O57  1  0.266753  0.731859  0.625962  1
  O  O58  1  0.286684  0.240128  0.709523  1
  O  O59  1  0.748204  0.268545  0.622406  1
  O  O60  1  0.275768  0.252578  0.786129  1
  O  O61  1  0.733175  0.733369  0.547618  1
  O  O62  1  0.267442  0.716316  0.710562  1
  O  O63  1  0.720342  0.242212  0.711329  1
  O  O64  1  0.735521  0.732349  0.630375  1
  O  O65  1  0.275721  0.260018  0.874477  1
  O  O66  1  0.267932  0.753224  0.791131  1
  O  O67  1  0.728748  0.746686  0.713863  1
  O  O68  1  0.735954  0.269510  0.791812  1
  O  O69  1  0.272012  0.267023  0.952916  1
  O  O70  1  0.272904  0.718938  0.877981  1
  O  O71  1  0.719469  0.263650  0.877646  1
  O  O72  1  0.721639  0.757115  0.791300  1
  O  O73  1  0.267251  0.744272  0.958239  1
  O  O74  1  0.728177  0.740753  0.878532  1
  O  O75  1  0.716544  0.282109  0.958893  1
  O  O76  1  0.732970  0.760838  0.956010  1
