# generated using pymatgen
data_Zn2BIr2
_symmetry_space_group_name_H-M   'P 1'
_cell_length_a   2.83830482
_cell_length_b   10.29398254
_cell_length_c   13.46773018
_cell_angle_alpha   90.00000000
_cell_angle_beta   96.04873097
_cell_angle_gamma   90.00000000
_symmetry_Int_Tables_number   1
_chemical_formula_structural   Zn2BIr2
_chemical_formula_sum   'Zn12 B6 Ir12'
_cell_volume   391.30215246
_cell_formula_units_Z   6
loop_
 _symmetry_equiv_pos_site_id
 _symmetry_equiv_pos_as_xyz
  1  'x, y, z'
loop_
 _atom_site_type_symbol
 _atom_site_label
 _atom_site_symmetry_multiplicity
 _atom_site_fract_x
 _atom_site_fract_y
 _atom_site_fract_z
 _atom_site_occupancy
  B  B0  1  0.861487  0.393675  0.722974  1
  B  B1  1  0.138513  0.606325  0.277026  1
  B  B2  1  0.138513  0.893675  0.277026  1
  B  B3  1  0.861487  0.106325  0.722974  1
  B  B4  1  0.041088  0.750000  0.082175  1
  B  B5  1  0.958912  0.250000  0.917825  1
  Zn  Zn6  1  0.911357  0.880195  0.822715  1
  Zn  Zn7  1  0.088643  0.119805  0.177285  1
  Zn  Zn8  1  0.088643  0.380195  0.177285  1
  Zn  Zn9  1  0.911357  0.619805  0.822715  1
  Zn  Zn10  1  0.760828  0.389073  0.521656  1
  Zn  Zn11  1  0.239172  0.610927  0.478344  1
  Zn  Zn12  1  0.000000  0.000000  0.000000  1
  Zn  Zn13  1  0.000000  0.500000  0.000000  1
  Zn  Zn14  1  0.180295  0.250000  0.360590  1
  Zn  Zn15  1  0.819705  0.750000  0.639410  1
  Zn  Zn16  1  0.760828  0.110927  0.521656  1
  Zn  Zn17  1  0.239172  0.889073  0.478344  1
  Ir  Ir18  1  0.668559  0.469407  0.337118  1
  Ir  Ir19  1  0.331441  0.530593  0.662882  1
  Ir  Ir20  1  0.331441  0.969407  0.662882  1
  Ir  Ir21  1  0.668559  0.030593  0.337118  1
  Ir  Ir22  1  0.480861  0.750000  0.961722  1
  Ir  Ir23  1  0.519139  0.250000  0.038278  1
  Ir  Ir24  1  0.671299  0.750000  0.342598  1
  Ir  Ir25  1  0.328701  0.250000  0.657402  1
  Ir  Ir26  1  0.425308  0.390855  0.850616  1
  Ir  Ir27  1  0.574692  0.609145  0.149384  1
  Ir  Ir28  1  0.574692  0.890855  0.149384  1
  Ir  Ir29  1  0.425308  0.109145  0.850616  1
