# generated using pymatgen
data_Zn13Co
_symmetry_space_group_name_H-M   'P 1'
_cell_length_a   5.05835397
_cell_length_b   6.61704827
_cell_length_c   6.61704826
_cell_angle_alpha   70.18533704
_cell_angle_beta   80.65110904
_cell_angle_gamma   80.65110908
_symmetry_Int_Tables_number   1
_chemical_formula_structural   Zn13Co
_chemical_formula_sum   'Zn13 Co1'
_cell_volume   204.22082947
_cell_formula_units_Z   1
loop_
 _symmetry_equiv_pos_site_id
 _symmetry_equiv_pos_as_xyz
  1  'x, y, z'
loop_
 _atom_site_type_symbol
 _atom_site_label
 _atom_site_symmetry_multiplicity
 _atom_site_fract_x
 _atom_site_fract_y
 _atom_site_fract_z
 _atom_site_occupancy
  Co  Co0  1  0.500000  0.000000  0.000000  1
  Zn  Zn1  1  0.000000  0.000000  0.000000  1
  Zn  Zn2  1  0.929689  0.386956  0.386956  1
  Zn  Zn3  1  0.070311  0.613044  0.613044  1
  Zn  Zn4  1  0.372414  0.778608  0.778608  1
  Zn  Zn5  1  0.627586  0.221392  0.221392  1
  Zn  Zn6  1  0.317098  0.629024  0.216190  1
  Zn  Zn7  1  0.682902  0.783810  0.370976  1
  Zn  Zn8  1  0.682902  0.370976  0.783810  1
  Zn  Zn9  1  0.317098  0.216190  0.629024  1
  Zn  Zn10  1  0.801087  0.644645  0.003230  1
  Zn  Zn11  1  0.198913  0.996770  0.355355  1
  Zn  Zn12  1  0.198913  0.355355  0.996770  1
  Zn  Zn13  1  0.801087  0.003230  0.644645  1
