# generated using pymatgen
data_ZnFe5O8
_symmetry_space_group_name_H-M   'P 1'
_cell_length_a   6.06429501
_cell_length_b   6.07988778
_cell_length_c   6.06652331
_cell_angle_alpha   59.95445838
_cell_angle_beta   60.18348718
_cell_angle_gamma   59.87254523
_symmetry_Int_Tables_number   1
_chemical_formula_structural   ZnFe5O8
_chemical_formula_sum   'Zn1 Fe5 O8'
_cell_volume   158.17152667
_cell_formula_units_Z   1
loop_
 _symmetry_equiv_pos_site_id
 _symmetry_equiv_pos_as_xyz
  1  'x, y, z'
loop_
 _atom_site_type_symbol
 _atom_site_label
 _atom_site_symmetry_multiplicity
 _atom_site_fract_x
 _atom_site_fract_y
 _atom_site_fract_z
 _atom_site_occupancy
  Zn  Zn0  1  0.000328  0.000051  0.999375  1
  Fe  Fe1  1  0.249886  0.249667  0.250276  1
  Fe  Fe2  1  0.124987  0.624828  0.625308  1
  Fe  Fe3  1  0.625143  0.624851  0.125054  1
  Fe  Fe4  1  0.624754  0.125041  0.625002  1
  Fe  Fe5  1  0.624857  0.625168  0.624969  1
  O  O6  1  0.387080  0.388753  0.386866  1
  O  O7  1  0.388683  0.386890  0.837634  1
  O  O8  1  0.386725  0.838018  0.386735  1
  O  O9  1  0.837809  0.386666  0.388504  1
  O  O10  1  0.406157  0.864156  0.865546  1
  O  O11  1  0.864064  0.405975  0.864650  1
  O  O12  1  0.865394  0.864596  0.405714  1
  O  O13  1  0.864131  0.865341  0.864367  1
