# generated using pymatgen
data_Zn(AgO2)2
_symmetry_space_group_name_H-M   'P 1'
_cell_length_a   6.07861380
_cell_length_b   6.56650400
_cell_length_c   6.31335754
_cell_angle_alpha   102.87472973
_cell_angle_beta   118.77746401
_cell_angle_gamma   62.42882858
_symmetry_Int_Tables_number   1
_chemical_formula_structural   Zn(AgO2)2
_chemical_formula_sum   'Zn2 Ag4 O8'
_cell_volume   195.79283969
_cell_formula_units_Z   2
loop_
 _symmetry_equiv_pos_site_id
 _symmetry_equiv_pos_as_xyz
  1  'x, y, z'
loop_
 _atom_site_type_symbol
 _atom_site_label
 _atom_site_symmetry_multiplicity
 _atom_site_fract_x
 _atom_site_fract_y
 _atom_site_fract_z
 _atom_site_occupancy
  Zn  Zn0  1  0.875000  0.250000  0.250000  1
  Zn  Zn1  1  0.125000  0.750000  0.750000  1
  Ag  Ag2  1  0.508203  0.983594  0.250000  1
  Ag  Ag3  1  0.758203  0.483594  0.750000  1
  Ag  Ag4  1  0.241797  0.516406  0.250000  1
  Ag  Ag5  1  0.491797  0.016406  0.750000  1
  O  O6  1  0.865187  0.496931  0.110653  1
  O  O7  1  0.748535  0.996931  0.610653  1
  O  O8  1  0.745466  0.003069  0.110653  1
  O  O9  1  0.637881  0.496931  0.389347  1
  O  O10  1  0.254534  0.996931  0.889347  1
  O  O11  1  0.362119  0.503069  0.610653  1
  O  O12  1  0.251465  0.003069  0.389347  1
  O  O13  1  0.134813  0.503069  0.889347  1
