# generated using pymatgen
data_Zn(CoO2)2
_symmetry_space_group_name_H-M   'P 1'
_cell_length_a   5.96703242
_cell_length_b   5.96308639
_cell_length_c   5.96030974
_cell_angle_alpha   90.14541089
_cell_angle_beta   119.91944385
_cell_angle_gamma   119.85250126
_symmetry_Int_Tables_number   1
_chemical_formula_structural   Zn(CoO2)2
_chemical_formula_sum   'Zn2 Co4 O8'
_cell_volume   150.28870456
_cell_formula_units_Z   2
loop_
 _symmetry_equiv_pos_site_id
 _symmetry_equiv_pos_as_xyz
  1  'x, y, z'
loop_
 _atom_site_type_symbol
 _atom_site_label
 _atom_site_symmetry_multiplicity
 _atom_site_fract_x
 _atom_site_fract_y
 _atom_site_fract_z
 _atom_site_occupancy
  Zn  Zn0  1  0.250256  0.125543  0.875510  1
  Zn  Zn1  1  0.749744  0.874456  0.124488  1
  Co  Co2  1  0.500001  0.000001  0.500000  1
  Co  Co3  1  0.499999  0.500000  0.500000  1
  Co  Co4  1  0.000000  0.500000  0.000000  1
  Co  Co5  1  -0.000000  0.500000  0.500001  1
  O  O6  1  0.021275  0.741595  0.260287  1
  O  O7  1  0.478851  0.739619  0.720329  1
  O  O8  1  0.479580  0.740110  0.259117  1
  O  O9  1  0.979060  0.720347  0.738987  1
  O  O10  1  0.520421  0.259893  0.740882  1
  O  O11  1  0.521154  0.260384  0.279669  1
  O  O12  1  0.020937  0.279650  0.261015  1
  O  O13  1  0.978722  0.258402  0.739714  1
