# generated using pymatgen
data_Zn(CuO2)2
_symmetry_space_group_name_H-M   'P 1'
_cell_length_a   6.15661019
_cell_length_b   6.15840189
_cell_length_c   6.15661019
_cell_angle_alpha   127.16693958
_cell_angle_beta   77.56734760
_cell_angle_gamma   127.64729183
_symmetry_Int_Tables_number   1
_chemical_formula_structural   Zn(CuO2)2
_chemical_formula_sum   'Zn2 Cu4 O8'
_cell_volume   142.84489535
_cell_formula_units_Z   2
loop_
 _symmetry_equiv_pos_site_id
 _symmetry_equiv_pos_as_xyz
  1  'x, y, z'
loop_
 _atom_site_type_symbol
 _atom_site_label
 _atom_site_symmetry_multiplicity
 _atom_site_fract_x
 _atom_site_fract_y
 _atom_site_fract_z
 _atom_site_occupancy
  Zn  Zn0  1  0.873971  0.750000  0.623971  1
  Zn  Zn1  1  0.126029  0.250000  0.376029  1
  Cu  Cu2  1  0.500000  0.000000  0.000000  1
  Cu  Cu3  1  0.500000  0.500000  0.000000  1
  Cu  Cu4  1  0.500000  0.000000  0.500000  1
  Cu  Cu5  1  0.000000  0.500000  0.000000  1
  O  O6  1  0.836097  0.714410  0.215241  1
  O  O7  1  0.499169  0.214410  0.378313  1
  O  O8  1  0.715183  0.885444  0.008288  1
  O  O9  1  0.877155  0.385444  0.670261  1
  O  O10  1  0.122845  0.614556  0.329739  1
  O  O11  1  0.284817  0.114556  0.991712  1
  O  O12  1  0.500831  0.785590  0.621687  1
  O  O13  1  0.163903  0.285590  0.784759  1
