# generated using pymatgen
data_Zn(Mo4O5)2
_symmetry_space_group_name_H-M   'P 1'
_cell_length_a   6.40907157
_cell_length_b   6.40907143
_cell_length_c   13.58118770
_cell_angle_alpha   103.64786855
_cell_angle_beta   103.64786840
_cell_angle_gamma   90.00000301
_symmetry_Int_Tables_number   1
_chemical_formula_structural   Zn(Mo4O5)2
_chemical_formula_sum   'Zn2 Mo16 O20'
_cell_volume   525.88851595
_cell_formula_units_Z   2
loop_
 _symmetry_equiv_pos_site_id
 _symmetry_equiv_pos_as_xyz
  1  'x, y, z'
loop_
 _atom_site_type_symbol
 _atom_site_label
 _atom_site_symmetry_multiplicity
 _atom_site_fract_x
 _atom_site_fract_y
 _atom_site_fract_z
 _atom_site_occupancy
  O  O0  1  0.502802  0.752757  0.505514  1
  O  O1  1  0.852124  0.583421  0.166841  1
  O  O2  1  0.713876  0.418371  0.836741  1
  O  O3  1  0.168370  0.963876  0.336740  1
  O  O4  1  0.168369  0.372864  0.336740  1
  O  O5  1  0.122864  0.418371  0.836741  1
  O  O6  1  0.306814  0.086670  0.173341  1
  O  O7  1  0.836671  0.556814  0.673341  1
  O  O8  1  0.836670  0.116526  0.673341  1
  O  O9  1  0.866527  0.086670  0.173342  1
  O  O10  1  0.333421  0.102124  0.666841  1
  O  O11  1  0.668445  0.925954  0.336891  1
  O  O12  1  0.668444  0.410935  0.336890  1
  O  O13  1  0.160936  0.918445  0.836890  1
  O  O14  1  0.314717  0.583421  0.166841  1
  O  O15  1  0.333421  0.564716  0.666841  1
  O  O16  1  0.002711  0.752757  0.505514  1
  O  O17  1  0.502757  0.252711  0.005514  1
  O  O18  1  0.502757  0.752803  0.005514  1
  O  O19  1  0.675954  0.918445  0.836890  1
  Zn  Zn20  1  0.622980  0.622979  0.245958  1
  Zn  Zn21  1  0.372980  0.872980  0.745959  1
  Mo  Mo22  1  0.443570  0.172772  0.345545  1
  Mo  Mo23  1  0.922772  0.693571  0.845545  1
  Mo  Mo24  1  0.922772  0.151973  0.845545  1
  Mo  Mo25  1  0.901974  0.172772  0.345545  1
  Mo  Mo26  1  0.582663  0.336281  0.672563  1
  Mo  Mo27  1  0.086281  0.832663  0.172564  1
  Mo  Mo28  1  0.086281  0.339901  0.172563  1
  Mo  Mo29  1  0.089900  0.336281  0.672563  1
  Mo  Mo30  1  0.269190  0.002774  0.005548  1
  Mo  Mo31  1  0.752774  0.519192  0.505548  1
  Mo  Mo32  1  0.752774  -0.013642  0.505548  1
  Mo  Mo33  1  0.736356  0.002774  0.005548  1
  Mo  Mo34  1  0.264706  0.500160  1.000319  1
  Mo  Mo35  1  0.250159  0.514707  0.500319  1
  Mo  Mo36  1  0.250160  -0.014387  0.500319  1
  Mo  Mo37  1  0.735613  0.500160  1.000319  1
