# generated using pymatgen
data_Zn(NiO2)2
_symmetry_space_group_name_H-M   'P 1'
_cell_length_a   5.86732692
_cell_length_b   5.87096615
_cell_length_c   5.86840444
_cell_angle_alpha   60.01445149
_cell_angle_beta   59.99715986
_cell_angle_gamma   60.01847961
_symmetry_Int_Tables_number   1
_chemical_formula_structural   Zn(NiO2)2
_chemical_formula_sum   'Zn2 Ni4 O8'
_cell_volume   142.97286348
_cell_formula_units_Z   2
loop_
 _symmetry_equiv_pos_site_id
 _symmetry_equiv_pos_as_xyz
  1  'x, y, z'
loop_
 _atom_site_type_symbol
 _atom_site_label
 _atom_site_symmetry_multiplicity
 _atom_site_fract_x
 _atom_site_fract_y
 _atom_site_fract_z
 _atom_site_occupancy
  Zn  Zn0  1  0.875010  0.875157  0.875125  1
  Zn  Zn1  1  0.124990  0.124843  0.124875  1
  Ni  Ni2  1  0.500000  0.500001  0.499999  1
  Ni  Ni3  1  0.500000  0.500000  0.000001  1
  Ni  Ni4  1  0.000000  0.500000  0.500000  1
  Ni  Ni5  1  0.500000  1.000000  0.500001  1
  O  O6  1  0.262505  0.262276  0.262315  1
  O  O7  1  0.737693  0.737911  0.286717  1
  O  O8  1  0.286674  0.737885  0.737825  1
  O  O9  1  0.737706  0.286722  0.737882  1
  O  O10  1  0.713327  0.262115  0.262175  1
  O  O11  1  0.262293  0.713279  0.262118  1
  O  O12  1  0.262307  0.262089  0.713283  1
  O  O13  1  0.737495  0.737723  0.737685  1
