# generated using pymatgen
data_ZnNi4O5
_symmetry_space_group_name_H-M   'P 1'
_cell_length_a   3.00552243
_cell_length_b   9.96149019
_cell_length_c   6.71446861
_cell_angle_alpha   78.30289876
_cell_angle_beta   102.93826482
_cell_angle_gamma   89.97956989
_symmetry_Int_Tables_number   1
_chemical_formula_structural   ZnNi4O5
_chemical_formula_sum   'Zn2 Ni8 O10'
_cell_volume   191.63469324
_cell_formula_units_Z   2
loop_
 _symmetry_equiv_pos_site_id
 _symmetry_equiv_pos_as_xyz
  1  'x, y, z'
loop_
 _atom_site_type_symbol
 _atom_site_label
 _atom_site_symmetry_multiplicity
 _atom_site_fract_x
 _atom_site_fract_y
 _atom_site_fract_z
 _atom_site_occupancy
  Zn  Zn0  1  0.000022  0.000078  0.000082  1
  Zn  Zn1  1  0.799978  0.599922  0.599918  1
  Ni  Ni2  1  0.299613  0.100598  0.599326  1
  Ni  Ni3  1  0.600365  0.200867  0.200619  1
  Ni  Ni4  1  0.500387  0.499402  0.000674  1
  Ni  Ni5  1  0.199635  0.399133  0.399381  1
  Ni  Ni6  1  0.100244  0.699194  0.200322  1
  Ni  Ni7  1  0.900000  0.300000  0.800000  1
  Ni  Ni8  1  0.699756  0.900806  0.399678  1
  Ni  Ni9  1  0.400000  0.800000  0.800000  1
  O  O10  1  0.151560  0.051370  0.303009  1
  O  O11  1  0.050554  0.349910  0.101128  1
  O  O12  1  0.448930  0.153058  0.897799  1
  O  O13  1  0.749446  0.250090  0.498872  1
  O  O14  1  0.648440  0.548630  0.296991  1
  O  O15  1  0.351070  0.446942  0.702201  1
  O  O16  1  0.248969  0.753375  0.497944  1
  O  O17  1  0.551031  0.846625  0.102056  1
  O  O18  1  0.951253  0.650530  0.902644  1
  O  O19  1  0.848747  0.949470  0.697356  1
