# generated using pymatgen
data_Zn3Co9O16
_symmetry_space_group_name_H-M   'P 1'
_cell_length_a   5.78125690
_cell_length_b   5.78125690
_cell_length_c   10.07930938
_cell_angle_alpha   106.66577623
_cell_angle_beta   73.33422377
_cell_angle_gamma   120.00000000
_symmetry_Int_Tables_number   1
_chemical_formula_structural   Zn3Co9O16
_chemical_formula_sum   'Zn3 Co9 O16'
_cell_volume   275.28532271
_cell_formula_units_Z   1
loop_
 _symmetry_equiv_pos_site_id
 _symmetry_equiv_pos_as_xyz
  1  'x, y, z'
loop_
 _atom_site_type_symbol
 _atom_site_label
 _atom_site_symmetry_multiplicity
 _atom_site_fract_x
 _atom_site_fract_y
 _atom_site_fract_z
 _atom_site_occupancy
  Zn  Zn0  1  0.312480  0.687520  0.062558  1
  Zn  Zn1  1  0.624102  0.375898  0.127693  1
  Zn  Zn2  1  0.500665  0.499335  0.498005  1
  Co  Co3  1  0.060971  0.939029  0.316167  1
  Co  Co4  1  0.000560  0.999440  0.998322  1
  Co  Co5  1  0.561891  0.939029  0.316167  1
  Co  Co6  1  0.060971  0.438109  0.316167  1
  Co  Co7  1  0.124624  0.875376  0.626127  1
  Co  Co8  1  0.564487  0.937944  0.808970  1
  Co  Co9  1  0.062056  0.435513  0.808970  1
  Co  Co10  1  0.564487  0.435513  0.808970  1
  Co  Co11  1  0.812513  0.187487  0.562461  1
  O  O12  1  0.417377  0.582623  0.206028  1
  O  O13  1  0.193310  0.806690  0.420070  1
  O  O14  1  0.708877  0.850117  0.432362  1
  O  O15  1  0.149883  0.291123  0.432362  1
  O  O16  1  0.959218  0.582623  0.206028  1
  O  O17  1  0.417377  0.040782  0.206028  1
  O  O18  1  0.708877  0.291123  0.432362  1
  O  O19  1  0.204523  0.795477  0.919120  1
  O  O20  1  0.431171  0.568829  0.706486  1
  O  O21  1  0.930593  0.069407  0.208221  1
  O  O22  1  0.204523  0.328165  0.919120  1
  O  O23  1  0.671835  0.795477  0.919120  1
  O  O24  1  0.474109  0.083257  0.692404  1
  O  O25  1  0.916743  0.525891  0.692404  1
  O  O26  1  0.916743  0.083257  0.692404  1
  O  O27  1  0.695032  0.304968  0.914904  1
