# generated using pymatgen
data_CuNi9O10
_symmetry_space_group_name_H-M   'P 1'
_cell_length_a   5.95708529
_cell_length_b   5.14769633
_cell_length_c   6.64529922
_cell_angle_alpha   82.38602469
_cell_angle_beta   77.36816571
_cell_angle_gamma   106.02114705
_symmetry_Int_Tables_number   1
_chemical_formula_structural   CuNi9O10
_chemical_formula_sum   'Cu1 Ni9 O10'
_cell_volume   187.04009248
_cell_formula_units_Z   1
loop_
 _symmetry_equiv_pos_site_id
 _symmetry_equiv_pos_as_xyz
  1  'x, y, z'
loop_
 _atom_site_type_symbol
 _atom_site_label
 _atom_site_symmetry_multiplicity
 _atom_site_fract_x
 _atom_site_fract_y
 _atom_site_fract_z
 _atom_site_occupancy
  Cu  Cu0  1  0.900000  0.200000  0.600000  1
  Ni  Ni1  1  0.499530  0.999134  0.999264  1
  Ni  Ni2  1  0.000158  0.999863  0.999843  1
  Ni  Ni3  1  0.799842  0.400137  0.200157  1
  Ni  Ni4  1  0.300470  0.400866  0.200736  1
  Ni  Ni5  1  0.102148  0.799412  0.399672  1
  Ni  Ni6  1  0.400000  0.200000  0.600000  1
  Ni  Ni7  1  0.602821  0.802569  0.400475  1
  Ni  Ni8  1  0.697852  0.600588  0.800328  1
  Ni  Ni9  1  0.197179  0.597431  0.799525  1
  O  O10  1  0.450753  0.101562  0.299557  1
  O  O11  1  0.148513  0.699355  0.101063  1
  O  O12  1  0.949860  0.097666  0.297778  1
  O  O13  1  0.651487  0.700645  0.098937  1
  O  O14  1  0.267359  0.513279  0.494262  1
  O  O15  1  0.753407  0.495595  0.501536  1
  O  O16  1  0.532641  0.886721  0.705738  1
  O  O17  1  0.046593  0.904405  0.698464  1
  O  O18  1  0.349247  0.298438  0.900443  1
  O  O19  1  0.850140  0.302334  0.902222  1
