# generated using pymatgen
data_Zn49Pt29
_symmetry_space_group_name_H-M   'P 1'
_cell_length_a   2.80596711
_cell_length_b   7.05316961
_cell_length_c   60.12659840
_cell_angle_alpha   93.36247950
_cell_angle_beta   90.00000000
_cell_angle_gamma   90.00000000
_symmetry_Int_Tables_number   1
_chemical_formula_structural   Zn49Pt29
_chemical_formula_sum   'Zn49 Pt29'
_cell_volume   1187.91464101
_cell_formula_units_Z   1
loop_
 _symmetry_equiv_pos_site_id
 _symmetry_equiv_pos_as_xyz
  1  'x, y, z'
loop_
 _atom_site_type_symbol
 _atom_site_label
 _atom_site_symmetry_multiplicity
 _atom_site_fract_x
 _atom_site_fract_y
 _atom_site_fract_z
 _atom_site_occupancy
  Zn  Zn0  1  0.000000  0.705651  0.137415  1
  Zn  Zn1  1  0.000000  0.455101  0.326225  1
  Zn  Zn2  1  0.000000  0.568236  0.862585  1
  Zn  Zn3  1  0.000000  0.271553  0.240861  1
  Zn  Zn4  1  0.000000  0.483989  0.280087  1
  Zn  Zn5  1  0.000000  0.255617  0.169528  1
  Zn  Zn6  1  0.000000  0.678873  0.067484  1
  Zn  Zn7  1  0.000000  0.712407  0.821934  1
  Zn  Zn8  1  0.000000  0.944806  0.551538  1
  Zn  Zn9  1  0.000000  0.495162  0.655068  1
  Zn  Zn10  1  0.000000  0.611389  0.932516  1
  Zn  Zn11  1  0.000000  0.198177  0.874458  1
  Zn  Zn12  1  0.000000  0.886064  0.226072  1
  Zn  Zn13  1  0.000000  0.086089  0.830472  1
  Zn  Zn14  1  0.000000  0.931564  0.102952  1
  Zn  Zn15  1  0.000000  0.577272  0.575201  1
  Zn  Zn16  1  0.000000  0.622379  0.413953  1
  Zn  Zn17  1  0.000000  0.323719  0.125542  1
  Zn  Zn18  1  0.000000  0.377118  0.000000  1
  Zn  Zn19  1  0.000000  0.393268  0.448462  1
  Zn  Zn20  1  0.000000  0.067403  0.310329  1
  Zn  Zn21  1  0.000000  0.030693  0.759139  1
  Zn  Zn22  1  0.000000  0.080017  0.381439  1
  Zn  Zn23  1  0.000000  0.203903  0.719913  1
  Zn  Zn24  1  0.000000  0.128877  0.673775  1
  Zn  Zn25  1  0.000000  0.828612  0.897048  1
  Zn  Zn26  1  0.000000  0.840094  0.344932  1
  Zn  Zn27  1  0.000000  0.208426  0.586047  1
  Zn  Zn28  1  0.000000  0.545520  0.525745  1
  Zn  Zn29  1  0.000000  0.698578  0.618561  1
  Zn  Zn30  1  0.000000  0.311535  0.076412  1
  Zn  Zn31  1  0.000000  0.002071  0.424799  1
  Zn  Zn32  1  0.000000  0.848165  0.271701  1
  Zn  Zn33  1  0.000000  0.445059  0.373381  1
  Zn  Zn34  1  0.000000  0.576464  0.728299  1
  Zn  Zn35  1  0.000000  0.019774  0.474255  1
  Zn  Zn36  1  0.000000  0.117219  0.965384  1
  Zn  Zn37  1  0.000000  0.659992  0.773928  1
  Zn  Zn38  1  0.000000  0.757074  0.689671  1
  Zn  Zn39  1  0.000000  0.289836  0.793475  1
  Zn  Zn40  1  0.000000  0.890472  0.178066  1
  Zn  Zn41  1  0.000000  0.651380  0.483429  1
  Zn  Zn42  1  0.000000  0.747852  0.975232  1
  Zn  Zn43  1  0.000000  0.071678  0.626619  1
  Zn  Zn44  1  0.000000  0.151835  0.034616  1
  Zn  Zn45  1  0.000000  0.496362  0.206525  1
  Zn  Zn46  1  0.000000  0.772621  0.024768  1
  Zn  Zn47  1  0.000000  0.235124  0.923588  1
  Zn  Zn48  1  0.000000  0.167951  0.516571  1
  Pt  Pt49  1  0.500000  0.890916  0.724579  1
  Pt  Pt50  1  0.500000  0.882666  0.588506  1
  Pt  Pt51  1  0.500000  0.932373  0.794921  1
  Pt  Pt52  1  0.500000  0.331182  0.485207  1
  Pt  Pt53  1  0.500000  0.438974  0.963227  1
  Pt  Pt54  1  0.500000  0.931712  0.933516  1
  Pt  Pt55  1  0.500000  0.166337  0.275421  1
  Pt  Pt56  1  0.500000  0.198089  0.346125  1
  Pt  Pt57  1  0.500000  0.369464  0.756807  1
  Pt  Pt58  1  0.500000  0.415072  0.691739  1
  Pt  Pt59  1  0.500000  0.137452  0.205079  1
  Pt  Pt60  1  0.500000  0.475746  0.036773  1
  Pt  Pt61  1  0.500000  0.001656  0.000000  1
  Pt  Pt62  1  0.500000  0.612657  0.243193  1
  Pt  Pt63  1  0.500000  0.723333  0.308261  1
  Pt  Pt64  1  0.500000  0.319540  0.551253  1
  Pt  Pt65  1  0.500000  0.768287  0.448747  1
  Pt  Pt66  1  0.500000  0.845974  0.514793  1
  Pt  Pt67  1  0.500000  0.403504  0.829369  1
  Pt  Pt68  1  0.500000  0.574135  0.170631  1
  Pt  Pt69  1  0.500000  0.896398  0.860173  1
  Pt  Pt70  1  0.500000  0.459563  0.897648  1
  Pt  Pt71  1  0.500000  0.998197  0.066484  1
  Pt  Pt72  1  0.500000  0.761776  0.381070  1
  Pt  Pt73  1  0.500000  0.380706  0.618930  1
  Pt  Pt74  1  0.500000  0.294160  0.411494  1
  Pt  Pt75  1  0.500000  0.561915  0.102352  1
  Pt  Pt76  1  0.500000  0.036225  0.139827  1
  Pt  Pt77  1  0.500000  0.851964  0.653875  1
