# generated using pymatgen
data_Zn2Fe7O12
_symmetry_space_group_name_H-M   'P 1'
_cell_length_a   6.06253073
_cell_length_b   6.06253073
_cell_length_c   13.55155614
_cell_angle_alpha   102.92550071
_cell_angle_beta   77.07449929
_cell_angle_gamma   90.00000000
_symmetry_Int_Tables_number   1
_chemical_formula_structural   Zn2Fe7O12
_chemical_formula_sum   'Zn4 Fe14 O24'
_cell_volume   472.49985523
_cell_formula_units_Z   2
loop_
 _symmetry_equiv_pos_site_id
 _symmetry_equiv_pos_as_xyz
  1  'x, y, z'
loop_
 _atom_site_type_symbol
 _atom_site_label
 _atom_site_symmetry_multiplicity
 _atom_site_fract_x
 _atom_site_fract_y
 _atom_site_fract_z
 _atom_site_occupancy
  Zn  Zn0  1  0.999770  0.000230  0.000458  1
  Zn  Zn1  1  0.416896  0.083104  0.166208  1
  Zn  Zn2  1  0.749770  0.750230  0.500458  1
  Zn  Zn3  1  0.666896  0.333104  0.666208  1
  Fe  Fe4  1  0.708333  0.541667  0.083333  1
  Fe  Fe5  1  0.208333  0.541667  0.083333  1
  Fe  Fe6  1  0.875178  0.874920  0.249646  1
  Fe  Fe7  1  0.875178  0.374726  0.249646  1
  Fe  Fe8  1  0.333333  0.666667  0.333333  1
  Fe  Fe9  1  0.541587  0.208511  0.417021  1
  Fe  Fe10  1  0.041392  0.208511  0.417021  1
  Fe  Fe11  1  0.208333  0.041667  0.583333  1
  Fe  Fe12  1  0.208333  0.541667  0.583333  1
  Fe  Fe13  1  0.375274  0.874822  0.749646  1
  Fe  Fe14  1  0.875080  0.874822  0.749646  1
  Fe  Fe15  1  0.083333  0.416667  0.833333  1
  Fe  Fe16  1  0.541489  0.208413  0.917021  1
  Fe  Fe17  1  0.541489  0.708608  0.917021  1
  O  O18  1  0.461670  0.309113  0.076658  1
  O  O19  1  0.461670  0.767546  0.076658  1
  O  O20  1  0.954996  0.315788  0.090009  1
  O  O21  1  0.954996  0.774220  0.090009  1
  O  O22  1  0.104618  0.620795  0.241590  1
  O  O23  1  0.653792  0.620795  0.241590  1
  O  O24  1  0.642282  0.128500  0.257000  1
  O  O25  1  0.100717  0.128500  0.257000  1
  O  O26  1  0.795167  0.434051  0.409666  1
  O  O27  1  0.795167  0.975616  0.409666  1
  O  O28  1  0.287462  0.437952  0.425077  1
  O  O29  1  0.287462  0.987125  0.425077  1
  O  O30  1  0.982454  0.288330  0.576658  1
  O  O31  1  0.440887  0.288330  0.576658  1
  O  O32  1  0.975780  0.795004  0.590009  1
  O  O33  1  0.434212  0.795004  0.590009  1
  O  O34  1  0.129205  0.096208  0.741590  1
  O  O35  1  0.129205  0.645382  0.741590  1
  O  O36  1  0.621500  0.107718  0.757000  1
  O  O37  1  0.621500  0.649283  0.757000  1
  O  O38  1  0.315949  0.954833  0.909666  1
  O  O39  1  0.774384  0.954833  0.909666  1
  O  O40  1  0.312048  0.462538  0.925077  1
  O  O41  1  0.762875  0.462538  0.925077  1
