# generated using pymatgen
data_Zn2Mo3O8
_symmetry_space_group_name_H-M   'P 1'
_cell_length_a   6.28729844
_cell_length_b   6.28729907
_cell_length_c   9.55770777
_cell_angle_alpha   90.00000000
_cell_angle_beta   90.00000000
_cell_angle_gamma   119.99999667
_symmetry_Int_Tables_number   1
_chemical_formula_structural   Zn2Mo3O8
_chemical_formula_sum   'Zn4 Mo6 O16'
_cell_volume   327.19946787
_cell_formula_units_Z   2
loop_
 _symmetry_equiv_pos_site_id
 _symmetry_equiv_pos_as_xyz
  1  'x, y, z'
loop_
 _atom_site_type_symbol
 _atom_site_label
 _atom_site_symmetry_multiplicity
 _atom_site_fract_x
 _atom_site_fract_y
 _atom_site_fract_z
 _atom_site_occupancy
  Zn  Zn0  1  0.333333  0.666666  0.787703  1
  Zn  Zn1  1  0.666667  0.333333  0.287704  1
  Zn  Zn2  1  0.666667  0.333333  0.905124  1
  Zn  Zn3  1  0.333333  0.666666  0.405124  1
  Mo  Mo4  1  0.164019  0.328039  0.078647  1
  Mo  Mo5  1  0.328039  0.164019  0.578648  1
  Mo  Mo6  1  0.164019  0.835981  0.078647  1
  Mo  Mo7  1  0.835981  0.164019  0.578648  1
  Mo  Mo8  1  0.835981  0.671962  0.578648  1
  Mo  Mo9  1  0.671962  0.835981  0.078647  1
  O  O10  1  -0.000000  -0.000000  0.466677  1
  O  O11  1  -0.000000  -0.000000  0.966677  1
  O  O12  1  0.666667  0.333333  0.695805  1
  O  O13  1  0.333333  0.666666  0.195806  1
  O  O14  1  0.518260  0.036520  0.453900  1
  O  O15  1  0.481740  0.518261  0.953899  1
  O  O16  1  0.036521  0.518261  0.953899  1
  O  O17  1  0.963479  0.481740  0.453900  1
  O  O18  1  0.518260  0.481740  0.453900  1
  O  O19  1  0.481740  0.963479  0.953899  1
  O  O20  1  0.833011  0.166989  0.174840  1
  O  O21  1  0.666020  0.833009  0.674840  1
  O  O22  1  0.166990  0.333981  0.674840  1
  O  O23  1  0.166989  0.833009  0.674840  1
  O  O24  1  0.333980  0.166989  0.174840  1
  O  O25  1  0.833010  0.666019  0.174840  1
