# generated using pymatgen
data_Zn2PdO4
_symmetry_space_group_name_H-M   'P 1'
_cell_length_a   6.14515151
_cell_length_b   6.14515152
_cell_length_c   6.14515151
_cell_angle_alpha   59.99999997
_cell_angle_beta   59.99999997
_cell_angle_gamma   59.99999998
_symmetry_Int_Tables_number   1
_chemical_formula_structural   Zn2PdO4
_chemical_formula_sum   'Zn4 Pd2 O8'
_cell_volume   164.09025409
_cell_formula_units_Z   2
loop_
 _symmetry_equiv_pos_site_id
 _symmetry_equiv_pos_as_xyz
  1  'x, y, z'
loop_
 _atom_site_type_symbol
 _atom_site_label
 _atom_site_symmetry_multiplicity
 _atom_site_fract_x
 _atom_site_fract_y
 _atom_site_fract_z
 _atom_site_occupancy
  O  O0  1  0.740719  0.740719  0.740719  1
  O  O1  1  0.259281  0.259281  0.722156  1
  O  O2  1  0.259281  0.722156  0.259281  1
  O  O3  1  0.722156  0.259281  0.259281  1
  O  O4  1  0.740719  0.277844  0.740719  1
  O  O5  1  0.277844  0.740719  0.740719  1
  O  O6  1  0.259281  0.259281  0.259281  1
  O  O7  1  0.740719  0.740719  0.277844  1
  Zn  Zn8  1  0.500000  0.500000  0.500000  1
  Zn  Zn9  1  0.500000  0.500000  0.000000  1
  Zn  Zn10  1  0.500000  0.000000  0.500000  1
  Zn  Zn11  1  0.000000  0.500000  0.500000  1
  Pd  Pd12  1  0.875000  0.875000  0.875000  1
  Pd  Pd13  1  0.125000  0.125000  0.125000  1
