# generated using pymatgen
data_Zn2PtO4
_symmetry_space_group_name_H-M   'P 1'
_cell_length_a   6.16945376
_cell_length_b   6.22189219
_cell_length_c   6.16945320
_cell_angle_alpha   59.71843200
_cell_angle_beta   58.01124163
_cell_angle_gamma   59.71843154
_symmetry_Int_Tables_number   1
_chemical_formula_structural   Zn2PtO4
_chemical_formula_sum   'Zn4 Pt2 O8'
_cell_volume   164.11110749
_cell_formula_units_Z   2
loop_
 _symmetry_equiv_pos_site_id
 _symmetry_equiv_pos_as_xyz
  1  'x, y, z'
loop_
 _atom_site_type_symbol
 _atom_site_label
 _atom_site_symmetry_multiplicity
 _atom_site_fract_x
 _atom_site_fract_y
 _atom_site_fract_z
 _atom_site_occupancy
  O  O0  1  0.392650  0.376522  0.392650  1
  O  O1  1  0.392650  0.838179  0.392650  1
  O  O2  1  0.400137  0.373967  0.851928  1
  O  O3  1  0.851928  0.373967  0.400137  1
  O  O4  1  0.398072  0.876033  0.849863  1
  O  O5  1  0.857350  0.411821  0.857350  1
  O  O6  1  0.849863  0.876033  0.398072  1
  O  O7  1  0.857350  0.873478  0.857350  1
  Pt  Pt8  1  0.625000  0.125000  0.625000  1
  Pt  Pt9  1  0.625000  0.625000  0.625000  1
  Zn  Zn10  1  0.974693  0.025307  0.974693  1
  Zn  Zn11  1  0.275307  0.224693  0.275307  1
  Zn  Zn12  1  0.125000  0.625000  0.625000  1
  Zn  Zn13  1  0.625000  0.625000  0.125000  1
