# generated using pymatgen
data_ZnWO4
_symmetry_space_group_name_H-M   'P 1'
_cell_length_a   5.31942182
_cell_length_b   7.69017846
_cell_length_c   7.69017841
_cell_angle_alpha   123.94142322
_cell_angle_beta   90.00000000
_cell_angle_gamma   90.00000000
_symmetry_Int_Tables_number   1
_chemical_formula_structural   ZnWO4
_chemical_formula_sum   'Zn4 W4 O16'
_cell_volume   260.98204654
_cell_formula_units_Z   4
loop_
 _symmetry_equiv_pos_site_id
 _symmetry_equiv_pos_as_xyz
  1  'x, y, z'
loop_
 _atom_site_type_symbol
 _atom_site_label
 _atom_site_symmetry_multiplicity
 _atom_site_fract_x
 _atom_site_fract_y
 _atom_site_fract_z
 _atom_site_occupancy
  Zn  Zn0  1  0.750000  0.422892  0.077108  1
  Zn  Zn1  1  0.750000  0.922892  0.577108  1
  Zn  Zn2  1  0.250000  0.077108  0.422892  1
  Zn  Zn3  1  0.250000  0.577108  0.922892  1
  W  W4  1  0.804130  0.407502  0.592498  1
  W  W5  1  0.695870  0.907502  0.092498  1
  W  W6  1  0.304130  0.092498  0.907502  1
  W  W7  1  0.195870  0.592498  0.407502  1
  O  O8  1  0.750000  0.089665  0.410335  1
  O  O9  1  0.440857  0.808544  0.191456  1
  O  O10  1  0.457597  0.405519  0.594481  1
  O  O11  1  0.500000  0.161774  0.161774  1
  O  O12  1  0.957597  0.094481  0.905519  1
  O  O13  1  0.059143  0.308544  0.691456  1
  O  O14  1  0.750000  0.589665  0.910335  1
  O  O15  1  0.559143  0.191456  0.808544  1
  O  O16  1  0.000000  0.661774  0.661774  1
  O  O17  1  0.500000  0.838226  0.838226  1
  O  O18  1  0.000000  0.338226  0.338226  1
  O  O19  1  0.542403  0.594481  0.405519  1
  O  O20  1  0.940857  0.691456  0.308544  1
  O  O21  1  0.042403  0.905519  0.094481  1
  O  O22  1  0.250000  0.410335  0.089665  1
  O  O23  1  0.250000  0.910335  0.589665  1
