# generated using pymatgen
data_ZnAu3
_symmetry_space_group_name_H-M   'P 1'
_cell_length_a   5.70803984
_cell_length_b   5.70803950
_cell_length_c   17.43232673
_cell_angle_alpha   99.42288780
_cell_angle_beta   99.42288725
_cell_angle_gamma   89.99999568
_symmetry_Int_Tables_number   1
_chemical_formula_structural   ZnAu3
_chemical_formula_sum   'Zn8 Au24'
_cell_volume   552.54128970
_cell_formula_units_Z   8
loop_
 _symmetry_equiv_pos_site_id
 _symmetry_equiv_pos_as_xyz
  1  'x, y, z'
loop_
 _atom_site_type_symbol
 _atom_site_label
 _atom_site_symmetry_multiplicity
 _atom_site_fract_x
 _atom_site_fract_y
 _atom_site_fract_z
 _atom_site_occupancy
  Zn  Zn0  1  0.807110  0.057110  0.114221  1
  Zn  Zn1  1  0.442890  0.692890  0.385779  1
  Zn  Zn2  1  0.942890  0.192890  0.385779  1
  Zn  Zn3  1  0.192890  0.942890  0.885779  1
  Zn  Zn4  1  0.307110  0.557110  0.114221  1
  Zn  Zn5  1  0.557110  0.307110  0.614221  1
  Zn  Zn6  1  0.692890  0.442890  0.885779  1
  Zn  Zn7  1  0.057110  0.807110  0.614221  1
  Au  Au8  1  0.059774  0.940226  0.250000  1
  Au  Au9  1  0.434662  0.184662  0.369325  1
  Au  Au10  1  0.750000  0.501032  0.500000  1
  Au  Au11  1  0.559774  0.809774  0.250000  1
  Au  Au12  1  0.809774  0.559774  0.750000  1
  Au  Au13  1  0.565338  0.815338  0.630675  1
  Au  Au14  1  0.250000  0.998968  0.500000  1
  Au  Au15  1  0.315338  0.065338  0.130675  1
  Au  Au16  1  0.309774  0.690226  0.750000  1
  Au  Au17  1  0.684662  0.934662  0.869325  1
  Au  Au18  1  0.440226  0.190226  0.750000  1
  Au  Au19  1  0.065338  0.315338  0.630675  1
  Au  Au20  1  0.998968  0.250000  0.000000  1
  Au  Au21  1  0.815338  0.565338  0.130675  1
  Au  Au22  1  0.184662  0.434662  0.869325  1
  Au  Au23  1  0.690226  0.309774  0.250000  1
  Au  Au24  1  0.498968  0.250000  0.000000  1
  Au  Au25  1  0.001032  0.750000  1.000000  1
  Au  Au26  1  0.190226  0.440226  0.250000  1
  Au  Au27  1  0.750000  0.001032  0.500000  1
  Au  Au28  1  0.934662  0.684662  0.369325  1
  Au  Au29  1  0.501032  0.750000  1.000000  1
  Au  Au30  1  0.940226  0.059774  0.750000  1
  Au  Au31  1  0.250000  0.498968  0.500000  1
