# generated using pymatgen
data_Zn9Fe15O32
_symmetry_space_group_name_H-M   'P 1'
_cell_length_a   6.01002208
_cell_length_b   6.04621264
_cell_length_c   19.98380883
_cell_angle_alpha   98.96968581
_cell_angle_beta   89.47745929
_cell_angle_gamma   119.81501461
_symmetry_Int_Tables_number   1
_chemical_formula_structural   Zn9Fe15O32
_chemical_formula_sum   'Zn9 Fe15 O32'
_cell_volume   620.35969362
_cell_formula_units_Z   1
loop_
 _symmetry_equiv_pos_site_id
 _symmetry_equiv_pos_as_xyz
  1  'x, y, z'
loop_
 _atom_site_type_symbol
 _atom_site_label
 _atom_site_symmetry_multiplicity
 _atom_site_fract_x
 _atom_site_fract_y
 _atom_site_fract_z
 _atom_site_occupancy
  Zn  Zn0  1  0.216766  0.936716  0.155658  1
  Zn  Zn1  1  0.998462  0.005307  0.000360  1
  Zn  Zn2  1  0.719221  0.935980  0.155519  1
  Zn  Zn3  1  0.470558  0.441986  0.407956  1
  Zn  Zn4  1  0.971398  0.441730  0.407842  1
  Zn  Zn5  1  0.843030  0.688968  0.530637  1
  Zn  Zn6  1  0.718068  0.936725  0.655877  1
  Zn  Zn7  1  0.594760  0.187314  0.781309  1
  Zn  Zn8  1  0.469283  0.438142  0.905831  1
  Fe  Fe9  1  0.344107  0.687278  0.030318  1
  Fe  Fe10  1  0.217024  0.434108  0.155647  1
  Fe  Fe11  1  0.685038  0.367045  0.061455  1
  Fe  Fe12  1  0.433811  0.867431  0.311584  1
  Fe  Fe13  1  0.092769  0.185743  0.281463  1
  Fe  Fe14  1  0.753220  0.507393  0.252401  1
  Fe  Fe15  1  0.969009  0.939934  0.408140  1
  Fe  Fe16  1  0.218822  0.937410  0.656235  1
  Fe  Fe17  1  0.189988  0.370087  0.563607  1
  Fe  Fe18  1  0.245625  0.503074  0.747585  1
  Fe  Fe19  1  0.502428  0.009780  0.499256  1
  Fe  Fe20  1  0.468370  0.934644  0.905331  1
  Fe  Fe21  1  0.718791  0.437901  0.656174  1
  Fe  Fe22  1  0.942534  0.871502  0.814184  1
  Fe  Fe23  1  0.970480  0.437243  0.906206  1
  O  O24  1  0.044602  0.557729  0.093650  1
  O  O25  1  0.511925  0.556458  0.092590  1
  O  O26  1  0.399125  0.797748  0.214157  1
  O  O27  1  0.038665  0.077148  0.101793  1
  O  O28  1  0.391637  0.316148  0.219537  1
  O  O29  1  0.149254  0.821000  0.465636  1
  O  O30  1  0.916231  0.832781  0.219981  1
  O  O31  1  0.268890  0.538773  0.343663  1
  O  O32  1  0.519187  0.040716  0.092433  1
  O  O33  1  0.263401  0.061273  0.343495  1
  O  O34  1  0.151350  0.301125  0.466211  1
  O  O35  1  0.028002  0.570784  0.598631  1
  O  O36  1  0.670476  0.822505  0.466568  1
  O  O37  1  0.789032  0.579897  0.348623  1
  O  O38  1  0.923919  0.315401  0.219817  1
  O  O39  1  0.666525  0.331586  0.467308  1
  O  O40  1  0.407961  0.829501  0.715543  1
  O  O41  1  0.797059  0.061213  0.343845  1
  O  O42  1  0.543887  0.560500  0.596599  1
  O  O43  1  0.030034  0.044901  0.597108  1
  O  O44  1  0.909289  0.801644  0.715310  1
  O  O45  1  0.409663  0.304126  0.714132  1
  O  O46  1  0.165560  0.794347  0.965298  1
  O  O47  1  0.528195  0.073907  0.598312  1
  O  O48  1  0.279770  0.572574  0.845606  1
  O  O49  1  0.891997  0.312728  0.715578  1
  O  O50  1  0.626434  0.804320  0.967098  1
  O  O51  1  0.162096  0.342640  0.966160  1
  O  O52  1  0.295329  0.060796  0.846883  1
  O  O53  1  0.781501  0.546073  0.846483  1
  O  O54  1  0.778883  0.067793  0.848182  1
  O  O55  1  0.656553  0.298430  0.963194  1
