# generated using pymatgen
data_Zn9Fe21O40
_symmetry_space_group_name_H-M   'P 1'
_cell_length_a   6.03843499
_cell_length_b   6.05913300
_cell_length_c   24.97704135
_cell_angle_alpha   90.09350015
_cell_angle_beta   96.72789404
_cell_angle_gamma   119.99884251
_symmetry_Int_Tables_number   1
_chemical_formula_structural   Zn9Fe21O40
_chemical_formula_sum   'Zn9 Fe21 O40'
_cell_volume   784.05016628
_cell_formula_units_Z   1
loop_
 _symmetry_equiv_pos_site_id
 _symmetry_equiv_pos_as_xyz
  1  'x, y, z'
loop_
 _atom_site_type_symbol
 _atom_site_label
 _atom_site_symmetry_multiplicity
 _atom_site_fract_x
 _atom_site_fract_y
 _atom_site_fract_z
 _atom_site_occupancy
  Zn  Zn0  1  0.250228  0.875640  0.125251  1
  Zn  Zn1  1  0.749955  0.875192  0.125126  1
  Zn  Zn2  1  0.049772  0.274360  0.324749  1
  Zn  Zn3  1  0.550045  0.274808  0.324874  1
  Zn  Zn4  1  0.850301  0.675386  0.526306  1
  Zn  Zn5  1  0.749986  0.876376  0.624833  1
  Zn  Zn6  1  0.650000  0.075000  0.725000  1
  Zn  Zn7  1  0.449699  0.474614  0.923694  1
  Zn  Zn8  1  0.550014  0.273624  0.825167  1
  Fe  Fe9  1  0.350674  0.675796  0.025687  1
  Fe  Fe10  1  0.000299  0.005622  0.001419  1
  Fe  Fe11  1  0.249548  0.374485  0.125350  1
  Fe  Fe12  1  0.050452  0.775515  0.324650  1
  Fe  Fe13  1  0.696540  0.342653  0.048915  1
  Fe  Fe14  1  0.494393  0.740318  0.248283  1
  Fe  Fe15  1  0.150000  0.075000  0.225000  1
  Fe  Fe16  1  0.603460  0.807347  0.401085  1
  Fe  Fe17  1  0.805607  0.409682  0.201717  1
  Fe  Fe18  1  0.350438  0.676436  0.525930  1
  Fe  Fe19  1  0.105597  0.546063  0.651465  1
  Fe  Fe20  1  0.299701  0.144378  0.448581  1
  Fe  Fe21  1  0.949326  0.474204  0.424313  1
  Fe  Fe22  1  0.194403  0.603937  0.798535  1
  Fe  Fe23  1  0.394833  0.204428  0.599504  1
  Fe  Fe24  1  0.849339  0.175929  0.525706  1
  Fe  Fe25  1  0.150000  0.075000  0.725000  1
  Fe  Fe26  1  0.450661  0.974071  0.924294  1
  Fe  Fe27  1  0.650000  0.575000  0.725000  1
  Fe  Fe28  1  0.905167  0.945572  0.850496  1
  Fe  Fe29  1  0.949562  0.473564  0.924070  1
  O  O30  1  0.066337  0.525043  0.075433  1
  O  O31  1  0.532550  0.524899  0.074633  1
  O  O32  1  0.334249  0.926366  0.274565  1
  O  O33  1  0.440699  0.710933  0.170699  1
  O  O34  1  0.058046  0.038329  0.078535  1
  O  O35  1  0.960231  0.745257  0.175828  1
  O  O36  1  0.233663  0.624957  0.374567  1
  O  O37  1  0.433731  0.224992  0.175158  1
  O  O38  1  0.866269  0.925008  0.274842  1
  O  O39  1  0.145572  0.802770  0.474901  1
  O  O40  1  0.538564  0.005526  0.073953  1
  O  O41  1  0.339769  0.404743  0.274172  1
  O  O42  1  0.142218  0.336606  0.474961  1
  O  O43  1  0.051663  0.519683  0.572183  1
  O  O44  1  0.241954  0.111671  0.371465  1
  O  O45  1  0.767450  0.625101  0.375367  1
  O  O46  1  0.648382  0.831904  0.479140  1
  O  O47  1  0.965751  0.223634  0.175435  1
  O  O48  1  0.859301  0.439067  0.279301  1
  O  O49  1  0.347953  0.939894  0.772761  1
  O  O50  1  0.761436  0.144474  0.376047  1
  O  O51  1  0.546483  0.537616  0.572395  1
  O  O52  1  0.034458  0.025768  0.572164  1
  O  O53  1  0.669940  0.329171  0.474141  1
  O  O54  1  0.467884  0.725638  0.677296  1
  O  O55  1  0.947527  0.732478  0.678454  1
  O  O56  1  0.852954  0.917392  0.771285  1
  O  O57  1  0.248337  0.630317  0.877817  1
  O  O58  1  0.157782  0.813394  0.975039  1
  O  O59  1  0.549570  0.020542  0.571762  1
  O  O60  1  0.352473  0.417522  0.771546  1
  O  O61  1  0.447046  0.232608  0.678715  1
  O  O62  1  0.154427  0.347230  0.975099  1
  O  O63  1  0.832116  0.424362  0.772704  1
  O  O64  1  0.630060  0.820829  0.975859  1
  O  O65  1  0.952047  0.210106  0.677239  1
  O  O66  1  0.753517  0.612384  0.877605  1
  O  O67  1  0.265542  0.124232  0.877836  1
  O  O68  1  0.750430  0.129458  0.878238  1
  O  O69  1  0.651618  0.318096  0.970860  1
