# generated using pymatgen
data_Zr5Sc2O13
_symmetry_space_group_name_H-M   'P 1'
_cell_length_a   8.09928326
_cell_length_b   8.09928275
_cell_length_c   8.09928340
_cell_angle_alpha   73.39388785
_cell_angle_beta   73.39388896
_cell_angle_gamma   73.39388796
_symmetry_Int_Tables_number   1
_chemical_formula_structural   Zr5Sc2O13
_chemical_formula_sum   'Zr10 Sc4 O26'
_cell_volume   475.70062469
_cell_formula_units_Z   2
loop_
 _symmetry_equiv_pos_site_id
 _symmetry_equiv_pos_as_xyz
  1  'x, y, z'
loop_
 _atom_site_type_symbol
 _atom_site_label
 _atom_site_symmetry_multiplicity
 _atom_site_fract_x
 _atom_site_fract_y
 _atom_site_fract_z
 _atom_site_occupancy
  Zr  Zr0  1  0.004407  0.004407  0.004407  1
  Zr  Zr1  1  0.134949  0.286004  0.547546  1
  Zr  Zr2  1  0.286004  0.547546  0.134949  1
  Zr  Zr3  1  0.097972  0.602351  0.789196  1
  Zr  Zr4  1  0.547546  0.134949  0.286004  1
  Zr  Zr5  1  0.602351  0.789196  0.097972  1
  Zr  Zr6  1  0.449564  0.867062  0.710532  1
  Zr  Zr7  1  0.789196  0.097972  0.602351  1
  Zr  Zr8  1  0.710532  0.449564  0.867062  1
  Zr  Zr9  1  0.867062  0.710532  0.449564  1
  Sc  Sc10  1  0.211312  0.904482  0.394906  1
  Sc  Sc11  1  0.394906  0.211312  0.904482  1
  Sc  Sc12  1  0.500275  0.500275  0.500275  1
  Sc  Sc13  1  0.904482  0.394906  0.211312  1
  O  O14  1  0.021942  0.173303  0.402160  1
  O  O15  1  0.047035  0.507731  0.333749  1
  O  O16  1  0.173303  0.402160  0.021942  1
  O  O17  1  0.047580  0.868631  0.257911  1
  O  O18  1  0.402160  0.021942  0.173303  1
  O  O19  1  0.333749  0.047035  0.507731  1
  O  O20  1  0.257911  0.047580  0.868631  1
  O  O21  1  0.356750  0.356750  0.356750  1
  O  O22  1  0.282212  0.387166  0.683156  1
  O  O23  1  0.507731  0.333749  0.047035  1
  O  O24  1  0.127854  0.746184  0.952464  1
  O  O25  1  0.387166  0.683156  0.282212  1
  O  O26  1  0.314427  0.716551  0.617940  1
  O  O27  1  0.683156  0.282212  0.387166  1
  O  O28  1  0.617940  0.314427  0.716551  1
  O  O29  1  0.868631  0.257911  0.047580  1
  O  O30  1  0.488592  0.667623  0.953035  1
  O  O31  1  0.716551  0.617940  0.314427  1
  O  O32  1  0.643541  0.643541  0.643541  1
  O  O33  1  0.746184  0.952464  0.127854  1
  O  O34  1  0.667623  0.953035  0.488592  1
  O  O35  1  0.603855  0.971869  0.826178  1
  O  O36  1  0.952464  0.127854  0.746184  1
  O  O37  1  0.826178  0.603855  0.971869  1
  O  O38  1  0.953035  0.488592  0.667623  1
  O  O39  1  0.971869  0.826178  0.603855  1
