# generated using pymatgen
data_Zr11VO24
_symmetry_space_group_name_H-M   'P 1'
_cell_length_a   7.29651685
_cell_length_b   10.86537399
_cell_length_c   5.30115123
_cell_angle_alpha   90.00000000
_cell_angle_beta   90.00000000
_cell_angle_gamma   90.00000000
_symmetry_Int_Tables_number   1
_chemical_formula_structural   Zr11VO24
_chemical_formula_sum   'Zr11 V1 O24'
_cell_volume   420.27200612
_cell_formula_units_Z   1
loop_
 _symmetry_equiv_pos_site_id
 _symmetry_equiv_pos_as_xyz
  1  'x, y, z'
loop_
 _atom_site_type_symbol
 _atom_site_label
 _atom_site_symmetry_multiplicity
 _atom_site_fract_x
 _atom_site_fract_y
 _atom_site_fract_z
 _atom_site_occupancy
  Zr  Zr0  1  0.120529  0.250000  0.754549  1
  Zr  Zr1  1  0.128126  0.583172  0.747017  1
  Zr  Zr2  1  0.128126  0.916828  0.747017  1
  Zr  Zr3  1  0.375000  0.085611  0.254692  1
  Zr  Zr4  1  0.375000  0.414389  0.254692  1
  Zr  Zr5  1  0.375000  0.750000  0.228903  1
  Zr  Zr6  1  0.629471  0.250000  0.754549  1
  Zr  Zr7  1  0.621874  0.583172  0.747017  1
  Zr  Zr8  1  0.621874  0.916828  0.747017  1
  Zr  Zr9  1  0.875000  0.077754  0.252783  1
  Zr  Zr10  1  0.875000  0.422246  0.252783  1
  V  V11  1  0.875000  0.750000  0.267419  1
  O  O12  1  0.129679  0.083295  0.449869  1
  O  O13  1  0.110932  0.081459  0.950580  1
  O  O14  1  0.129679  0.416705  0.449869  1
  O  O15  1  0.110932  0.418541  0.950580  1
  O  O16  1  0.103132  0.750000  0.423487  1
  O  O17  1  0.159218  0.750000  0.925644  1
  O  O18  1  0.375000  0.925222  0.046368  1
  O  O19  1  0.375000  0.904133  0.540462  1
  O  O20  1  0.375000  0.250000  0.562699  1
  O  O21  1  0.375000  0.250000  0.051733  1
  O  O22  1  0.375000  0.574778  0.046368  1
  O  O23  1  0.375000  0.595867  0.540462  1
  O  O24  1  0.620321  0.083295  0.449869  1
  O  O25  1  0.639068  0.081459  0.950580  1
  O  O26  1  0.639068  0.418541  0.950580  1
  O  O27  1  0.620321  0.416705  0.449869  1
  O  O28  1  0.646868  0.750000  0.423487  1
  O  O29  1  0.590782  0.750000  0.925644  1
  O  O30  1  0.875000  0.250000  0.553724  1
  O  O31  1  0.875000  0.250000  0.063011  1
  O  O32  1  0.875000  0.601975  0.072988  1
  O  O33  1  0.875000  0.569955  0.570348  1
  O  O34  1  0.875000  0.898025  0.072988  1
  O  O35  1  0.875000  0.930045  0.570348  1
