# generated using pymatgen
data_Zr6Nb2O17
_symmetry_space_group_name_H-M   'P 1'
_cell_length_a   5.33186034
_cell_length_b   21.25133086
_cell_length_c   5.03212662
_cell_angle_alpha   97.55918480
_cell_angle_beta   90.01431740
_cell_angle_gamma   82.71528038
_symmetry_Int_Tables_number   1
_chemical_formula_structural   Zr6Nb2O17
_chemical_formula_sum   'Zr12 Nb4 O34'
_cell_volume   560.59002792
_cell_formula_units_Z   2
loop_
 _symmetry_equiv_pos_site_id
 _symmetry_equiv_pos_as_xyz
  1  'x, y, z'
loop_
 _atom_site_type_symbol
 _atom_site_label
 _atom_site_symmetry_multiplicity
 _atom_site_fract_x
 _atom_site_fract_y
 _atom_site_fract_z
 _atom_site_occupancy
  Zr  Zr0  1  0.261198  0.000305  0.000353  1
  Zr  Zr1  1  0.764117  0.000109  0.501407  1
  Zr  Zr2  1  0.054864  0.130789  0.587979  1
  Zr  Zr3  1  0.414956  0.256490  0.646249  1
  Zr  Zr4  1  0.911649  0.255298  0.117129  1
  Zr  Zr5  1  0.421924  0.381158  0.182504  1
  Zr  Zr6  1  0.282006  0.497487  0.758134  1
  Zr  Zr7  1  0.779923  0.501901  0.238441  1
  Zr  Zr8  1  0.802982  0.618669  0.814335  1
  Zr  Zr9  1  0.166988  0.744535  0.879384  1
  Zr  Zr10  1  0.671076  0.743278  0.351149  1
  Zr  Zr11  1  0.184732  0.869353  0.411487  1
  Nb  Nb12  1  0.553557  0.131599  0.048775  1
  Nb  Nb13  1  0.920635  0.376745  0.713606  1
  Nb  Nb14  1  0.298037  0.622742  0.282699  1
  Nb  Nb15  1  0.683652  0.868288  0.950610  1
  O  O16  1  0.565010  0.052475  0.219932  1
  O  O17  1  0.063459  0.046780  0.331791  1
  O  O18  1  0.869359  0.071948  0.812065  1
  O  O19  1  0.380054  0.072046  0.770566  1
  O  O20  1  0.847843  0.166725  0.261592  1
  O  O21  1  0.358270  0.169521  0.382091  1
  O  O22  1  0.716986  0.192044  0.800858  1
  O  O23  1  0.232230  0.192213  0.897098  1
  O  O24  1  0.046474  0.283919  0.492850  1
  O  O25  1  0.551932  0.286643  0.310336  1
  O  O26  1  0.682725  0.317394  0.865137  1
  O  O27  1  0.173561  0.318084  0.962430  1
  O  O28  1  0.778264  0.394272  0.378381  1
  O  O29  1  0.247259  0.394827  0.559904  1
  O  O30  1  0.087604  0.438537  0.016401  1
  O  O31  1  0.613043  0.436006  0.908989  1
  O  O32  1  0.912914  0.511319  0.620118  1
  O  O33  1  0.424060  0.488398  0.376008  1
  O  O34  1  0.526544  0.561028  0.979205  1
  O  O35  1  0.050008  0.563313  0.085724  1
  O  O36  1  0.170951  0.606225  0.617865  1
  O  O37  1  0.642770  0.604904  0.436375  1
  O  O38  1  0.001098  0.682308  0.133973  1
  O  O39  1  0.491861  0.681596  0.035525  1
  O  O40  1  0.330230  0.715874  0.504722  1
  O  O41  1  0.836126  0.713868  0.689856  1
  O  O42  1  0.907148  0.807893  0.196889  1
  O  O43  1  0.422450  0.807408  0.102664  1
  O  O44  1  0.525223  0.830573  0.618179  1
  O  O45  1  0.012292  0.833254  0.736288  1
  O  O46  1  0.937255  0.928055  0.191703  1
  O  O47  1  0.448402  0.927949  0.227958  1
  O  O48  1  0.617663  0.947583  0.780583  1
  O  O49  1  0.110295  0.952727  0.672352  1
