# generated using pymatgen
data_Zr3V3C
_symmetry_space_group_name_H-M   'P 1'
_cell_length_a   8.66387427
_cell_length_b   8.66387409
_cell_length_c   8.66387405
_cell_angle_alpha   60.00000010
_cell_angle_beta   60.00000079
_cell_angle_gamma   59.99999758
_symmetry_Int_Tables_number   1
_chemical_formula_structural   Zr3V3C
_chemical_formula_sum   'Zr12 V12 C4'
_cell_volume   459.85551601
_cell_formula_units_Z   4
loop_
 _symmetry_equiv_pos_site_id
 _symmetry_equiv_pos_as_xyz
  1  'x, y, z'
loop_
 _atom_site_type_symbol
 _atom_site_label
 _atom_site_symmetry_multiplicity
 _atom_site_fract_x
 _atom_site_fract_y
 _atom_site_fract_z
 _atom_site_occupancy
  V  V0  1  0.500000  0.500000  0.500000  1
  V  V1  1  0.500000  0.500000  0.000000  1
  V  V2  1  0.000000  0.500000  0.500000  1
  V  V3  1  0.500000  0.000000  0.500000  1
  V  V4  1  0.701141  0.701141  0.701141  1
  V  V5  1  0.298859  0.298859  0.603424  1
  V  V6  1  0.603424  0.298859  0.298859  1
  V  V7  1  0.298859  0.603424  0.298859  1
  V  V8  1  0.396576  0.701141  0.701141  1
  V  V9  1  0.701141  0.396576  0.701141  1
  V  V10  1  0.701141  0.701141  0.396576  1
  V  V11  1  0.298859  0.298859  0.298859  1
  Zr  Zr12  1  0.683970  0.066030  0.066030  1
  Zr  Zr13  1  0.933970  0.933970  0.316030  1
  Zr  Zr14  1  0.316030  0.316030  0.933970  1
  Zr  Zr15  1  0.933970  0.316030  0.316030  1
  Zr  Zr16  1  0.933970  0.316030  0.933970  1
  Zr  Zr17  1  0.316030  0.933970  0.316030  1
  Zr  Zr18  1  0.066030  0.683970  0.066030  1
  Zr  Zr19  1  0.066030  0.066030  0.683970  1
  Zr  Zr20  1  0.683970  0.683970  0.066030  1
  Zr  Zr21  1  0.683970  0.066030  0.683970  1
  Zr  Zr22  1  0.316030  0.933970  0.933970  1
  Zr  Zr23  1  0.066030  0.683970  0.683970  1
  C  C24  1  0.000000  0.000000  0.000000  1
  C  C25  1  0.000000  0.000000  0.500000  1
  C  C26  1  0.500000  0.000000  0.000000  1
  C  C27  1  0.000000  0.500000  0.000000  1
