# generated using pymatgen
data_Zr3V3O
_symmetry_space_group_name_H-M   'P 1'
_cell_length_a   8.80329269
_cell_length_b   8.80329281
_cell_length_c   8.80329255
_cell_angle_alpha   59.99999695
_cell_angle_beta   59.99999650
_cell_angle_gamma   59.99999813
_symmetry_Int_Tables_number   1
_chemical_formula_structural   Zr3V3O
_chemical_formula_sum   'Zr12 V12 O4'
_cell_volume   482.41454967
_cell_formula_units_Z   4
loop_
 _symmetry_equiv_pos_site_id
 _symmetry_equiv_pos_as_xyz
  1  'x, y, z'
loop_
 _atom_site_type_symbol
 _atom_site_label
 _atom_site_symmetry_multiplicity
 _atom_site_fract_x
 _atom_site_fract_y
 _atom_site_fract_z
 _atom_site_occupancy
  Zr  Zr0  1  0.686511  0.063489  0.063489  1
  Zr  Zr1  1  0.936511  0.936511  0.313489  1
  Zr  Zr2  1  0.313489  0.313489  0.936511  1
  Zr  Zr3  1  0.936511  0.313489  0.313489  1
  Zr  Zr4  1  0.936511  0.313489  0.936511  1
  Zr  Zr5  1  0.313489  0.936511  0.313489  1
  Zr  Zr6  1  0.063489  0.686511  0.063489  1
  Zr  Zr7  1  0.063489  0.063489  0.686511  1
  Zr  Zr8  1  0.686511  0.686511  0.063489  1
  Zr  Zr9  1  0.686511  0.063489  0.686511  1
  Zr  Zr10  1  0.313489  0.936511  0.936511  1
  Zr  Zr11  1  0.063489  0.686511  0.686511  1
  V  V12  1  0.500000  0.500000  0.500000  1
  V  V13  1  0.500000  0.500000  0.000000  1
  V  V14  1  0.000000  0.500000  0.500000  1
  V  V15  1  0.500000  0.000000  0.500000  1
  V  V16  1  0.708181  0.708181  0.708181  1
  V  V17  1  0.291819  0.291819  0.624544  1
  V  V18  1  0.624544  0.291819  0.291819  1
  V  V19  1  0.291819  0.624544  0.291819  1
  V  V20  1  0.375456  0.708181  0.708181  1
  V  V21  1  0.708181  0.375456  0.708181  1
  V  V22  1  0.708181  0.708181  0.375456  1
  V  V23  1  0.291819  0.291819  0.291819  1
  O  O24  1  0.000000  0.000000  0.000000  1
  O  O25  1  0.000000  0.000000  0.500000  1
  O  O26  1  0.500000  0.000000  0.000000  1
  O  O27  1  0.000000  0.500000  0.000000  1
