# generated using pymatgen
data_Zr(WO4)2
_symmetry_space_group_name_H-M   'P 1'
_cell_length_a   9.00167043
_cell_length_b   9.30058764
_cell_length_c   27.56398625
_cell_angle_alpha   90.00000000
_cell_angle_beta   90.00000000
_cell_angle_gamma   90.00000000
_symmetry_Int_Tables_number   1
_chemical_formula_structural   Zr(WO4)2
_chemical_formula_sum   'Zr12 W24 O96'
_cell_volume   2307.67966199
_cell_formula_units_Z   12
loop_
 _symmetry_equiv_pos_site_id
 _symmetry_equiv_pos_as_xyz
  1  'x, y, z'
loop_
 _atom_site_type_symbol
 _atom_site_label
 _atom_site_symmetry_multiplicity
 _atom_site_fract_x
 _atom_site_fract_y
 _atom_site_fract_z
 _atom_site_occupancy
  Zr  Zr0  1  0.727054  0.776971  0.575698  1
  Zr  Zr1  1  0.231832  0.757365  0.745960  1
  Zr  Zr2  1  0.176672  0.711564  0.077536  1
  Zr  Zr3  1  0.772946  0.223029  0.075698  1
  Zr  Zr4  1  0.268168  0.242635  0.245960  1
  Zr  Zr5  1  0.823328  0.211564  0.422464  1
  Zr  Zr6  1  0.676672  0.788436  0.922464  1
  Zr  Zr7  1  0.227054  0.723029  0.424302  1
  Zr  Zr8  1  0.731832  0.742635  0.254040  1
  Zr  Zr9  1  0.272946  0.276971  0.924302  1
  Zr  Zr10  1  0.768168  0.257365  0.754040  1
  Zr  Zr11  1  0.323328  0.288436  0.577536  1
  W  W12  1  0.224684  0.119673  0.378123  1
  W  W13  1  0.585811  0.900257  0.375105  1
  W  W14  1  0.960952  0.101636  0.552202  1
  W  W15  1  0.775316  0.619673  0.121877  1
  W  W16  1  0.648034  0.856372  0.716419  1
  W  W17  1  0.851966  0.143628  0.216419  1
  W  W18  1  0.414189  0.400257  0.124895  1
  W  W19  1  0.039048  0.601636  0.947798  1
  W  W20  1  0.085811  0.599743  0.624895  1
  W  W21  1  0.310011  0.876115  0.553677  1
  W  W22  1  0.914189  0.099743  0.875105  1
  W  W23  1  0.117115  0.126246  0.684663  1
  W  W24  1  0.460952  0.398364  0.447798  1
  W  W25  1  0.382885  0.873754  0.184663  1
  W  W26  1  0.689989  0.376115  0.946323  1
  W  W27  1  0.882885  0.626246  0.815337  1
  W  W28  1  0.351966  0.356372  0.783581  1
  W  W29  1  0.810011  0.623885  0.446323  1
  W  W30  1  0.617115  0.373754  0.315337  1
  W  W31  1  0.724684  0.380327  0.621877  1
  W  W32  1  0.275316  0.880327  0.878123  1
  W  W33  1  0.189989  0.123885  0.053677  1
  W  W34  1  0.148034  0.643628  0.283581  1
  W  W35  1  0.539048  0.898364  0.052202  1
  O  O36  1  0.718404  0.293360  0.006424  1
  O  O37  1  0.299730  0.522715  0.432535  1
  O  O38  1  0.948052  0.458682  0.637740  1
  O  O39  1  0.255808  0.765219  0.247279  1
  O  O40  1  0.799730  0.977285  0.567465  1
  O  O41  1  0.823054  0.257589  0.581139  1
  O  O42  1  0.597315  0.542542  0.458768  1
  O  O43  1  0.735077  0.721909  0.394910  1
  O  O44  1  0.097399  0.642617  0.010436  1
  O  O45  1  0.194994  0.670905  0.346506  1
  O  O46  1  0.013076  0.068426  0.632045  1
  O  O47  1  0.640308  0.851489  0.312727  1
  O  O48  1  0.327278  0.046351  0.212868  1
  O  O49  1  0.172722  0.953649  0.712868  1
  O  O50  1  0.551948  0.541318  0.137740  1
  O  O51  1  0.963997  0.684853  0.108310  1
  O  O52  1  0.676946  0.742411  0.081139  1
  O  O53  1  0.817467  0.955771  0.233311  1
  O  O54  1  0.176946  0.757589  0.918861  1
  O  O55  1  0.281596  0.793360  0.493576  1
  O  O56  1  0.965882  0.216896  0.718066  1
  O  O57  1  0.902601  0.142617  0.489564  1
  O  O58  1  0.452498  0.808456  0.723558  1
  O  O59  1  0.536003  0.315147  0.608310  1
  O  O60  1  0.191333  0.937858  0.399574  1
  O  O61  1  0.227627  0.492718  0.592894  1
  O  O62  1  0.288253  0.851144  0.811980  1
  O  O63  1  0.858308  0.431898  0.436421  1
  O  O64  1  0.051948  0.958682  0.862260  1
  O  O65  1  0.358308  0.068102  0.563579  1
  O  O66  1  0.448052  0.041318  0.362260  1
  O  O67  1  0.691333  0.562142  0.600426  1
  O  O68  1  0.827278  0.453649  0.787132  1
  O  O69  1  0.547604  0.286061  0.093549  1
  O  O70  1  0.036003  0.184853  0.391690  1
  O  O71  1  0.694994  0.829095  0.653494  1
  O  O72  1  0.047604  0.213939  0.906451  1
  O  O73  1  0.242257  0.772631  0.151184  1
  O  O74  1  0.757742  0.272631  0.348816  1
  O  O75  1  0.463997  0.815147  0.891690  1
  O  O76  1  0.218404  0.206640  0.993576  1
  O  O77  1  0.141692  0.931898  0.063579  1
  O  O78  1  0.211747  0.148856  0.311980  1
  O  O79  1  0.993150  0.186380  0.060475  1
  O  O80  1  0.465882  0.283104  0.281934  1
  O  O81  1  0.264923  0.221909  0.105090  1
  O  O82  1  0.672722  0.546351  0.287132  1
  O  O83  1  0.788253  0.648856  0.188020  1
  O  O84  1  0.700270  0.022715  0.067465  1
  O  O85  1  0.110217  0.241367  0.557372  1
  O  O86  1  0.682533  0.044229  0.733311  1
  O  O87  1  0.006850  0.686380  0.439525  1
  O  O88  1  0.808667  0.437858  0.100426  1
  O  O89  1  0.610217  0.258633  0.442628  1
  O  O90  1  0.034118  0.716896  0.781934  1
  O  O91  1  0.097315  0.957458  0.541232  1
  O  O92  1  0.305006  0.329095  0.846506  1
  O  O93  1  0.047502  0.191544  0.223558  1
  O  O94  1  0.805006  0.170905  0.153494  1
  O  O95  1  0.235077  0.778091  0.605090  1
  O  O96  1  0.359692  0.351489  0.187273  1
  O  O97  1  0.902685  0.457458  0.958768  1
  O  O98  1  0.493150  0.313620  0.939525  1
  O  O99  1  0.317467  0.544229  0.766689  1
  O  O100  1  0.534118  0.783104  0.218066  1
  O  O101  1  0.244192  0.234781  0.747279  1
  O  O102  1  0.182533  0.455771  0.266689  1
  O  O103  1  0.140308  0.648511  0.687273  1
  O  O104  1  0.755808  0.734781  0.752721  1
  O  O105  1  0.772373  0.992718  0.907106  1
  O  O106  1  0.402601  0.357383  0.510436  1
  O  O107  1  0.597399  0.857383  0.989564  1
  O  O108  1  0.323054  0.242411  0.418861  1
  O  O109  1  0.452396  0.786061  0.406451  1
  O  O110  1  0.200270  0.477286  0.932535  1
  O  O111  1  0.547502  0.308456  0.776442  1
  O  O112  1  0.986924  0.568426  0.867955  1
  O  O113  1  0.641692  0.568102  0.936421  1
  O  O114  1  0.744192  0.265219  0.252721  1
  O  O115  1  0.257742  0.227369  0.651184  1
  O  O116  1  0.727627  0.007282  0.407106  1
  O  O117  1  0.389783  0.758633  0.057372  1
  O  O118  1  0.506850  0.813620  0.560475  1
  O  O119  1  0.764923  0.278091  0.894910  1
  O  O120  1  0.308667  0.062142  0.899574  1
  O  O121  1  0.402685  0.042542  0.041232  1
  O  O122  1  0.952396  0.713939  0.593549  1
  O  O123  1  0.486924  0.931574  0.132045  1
  O  O124  1  0.513076  0.431574  0.367955  1
  O  O125  1  0.889783  0.741367  0.942628  1
  O  O126  1  0.742258  0.727369  0.848816  1
  O  O127  1  0.952498  0.691544  0.276442  1
  O  O128  1  0.859692  0.148511  0.812727  1
  O  O129  1  0.272373  0.507282  0.092894  1
  O  O130  1  0.711747  0.351144  0.688020  1
  O  O131  1  0.781596  0.706640  0.506424  1
