# generated using pymatgen
data_Zr3Zn3C
_symmetry_space_group_name_H-M   'P 1'
_cell_length_a   8.68069862
_cell_length_b   8.68063712
_cell_length_c   8.68054670
_cell_angle_alpha   59.99978047
_cell_angle_beta   59.99980574
_cell_angle_gamma   59.99785617
_symmetry_Int_Tables_number   1
_chemical_formula_structural   Zr3Zn3C
_chemical_formula_sum   'Zr12 Zn12 C4'
_cell_volume   462.51941226
_cell_formula_units_Z   4
loop_
 _symmetry_equiv_pos_site_id
 _symmetry_equiv_pos_as_xyz
  1  'x, y, z'
loop_
 _atom_site_type_symbol
 _atom_site_label
 _atom_site_symmetry_multiplicity
 _atom_site_fract_x
 _atom_site_fract_y
 _atom_site_fract_z
 _atom_site_occupancy
  Zr  Zr0  1  0.560982  0.939001  0.938991  1
  Zr  Zr1  1  0.561003  0.561005  0.938998  1
  Zr  Zr2  1  0.561003  0.939009  0.561004  1
  Zr  Zr3  1  0.939007  0.561006  0.561001  1
  Zr  Zr4  1  0.938995  0.938995  0.560986  1
  Zr  Zr5  1  0.939005  0.560981  0.938993  1
  Zr  Zr6  1  0.688993  0.311000  0.310987  1
  Zr  Zr7  1  0.689000  0.689003  0.311001  1
  Zr  Zr8  1  0.689000  0.311000  0.689010  1
  Zr  Zr9  1  0.310999  0.689002  0.689011  1
  Zr  Zr10  1  0.310996  0.310992  0.688989  1
  Zr  Zr11  1  0.311002  0.688992  0.310986  1
  Zn  Zn12  1  0.008166  0.330589  0.330625  1
  Zn  Zn13  1  0.330593  0.330589  0.008192  1
  Zn  Zn14  1  0.330590  0.008167  0.330624  1
  Zn  Zn15  1  0.330604  0.330601  0.330632  1
  Zn  Zn16  1  0.241853  0.919377  0.919380  1
  Zn  Zn17  1  0.919377  0.919381  0.241853  1
  Zn  Zn18  1  0.919376  0.241851  0.919379  1
  Zn  Zn19  1  0.919381  0.919387  0.919380  1
  Zn  Zn20  1  0.624990  0.124992  0.125013  1
  Zn  Zn21  1  0.124995  0.124997  0.625007  1
  Zn  Zn22  1  0.124991  0.624990  0.125017  1
  Zn  Zn23  1  0.124990  0.124986  0.125005  1
  C  C24  1  0.125032  0.625019  0.624984  1
  C  C25  1  0.625027  0.625027  0.124976  1
  C  C26  1  0.625021  0.125030  0.624987  1
  C  C27  1  0.625029  0.625031  0.624990  1
