# generated using pymatgen
data_Zr7Ni10
_symmetry_space_group_name_H-M   'P 1'
_cell_length_a   7.71230169
_cell_length_b   7.71230226
_cell_length_c   9.23371058
_cell_angle_alpha   90.00000000
_cell_angle_beta   90.00000000
_cell_angle_gamma   107.00728847
_symmetry_Int_Tables_number   1
_chemical_formula_structural   Zr7Ni10
_chemical_formula_sum   'Zr14 Ni20'
_cell_volume   525.19880765
_cell_formula_units_Z   2
loop_
 _symmetry_equiv_pos_site_id
 _symmetry_equiv_pos_as_xyz
  1  'x, y, z'
loop_
 _atom_site_type_symbol
 _atom_site_label
 _atom_site_symmetry_multiplicity
 _atom_site_fract_x
 _atom_site_fract_y
 _atom_site_fract_z
 _atom_site_occupancy
  Zr  Zr0  1  0.255400  0.744600  0.000000  1
  Zr  Zr1  1  0.755400  0.244600  0.500000  1
  Zr  Zr2  1  0.757985  0.866942  0.687547  1
  Zr  Zr3  1  0.133058  0.242015  0.312453  1
  Zr  Zr4  1  0.638363  0.361637  0.000000  1
  Zr  Zr5  1  0.947184  0.556113  0.750706  1
  Zr  Zr6  1  0.943887  0.552816  0.250706  1
  Zr  Zr7  1  0.257985  0.366942  0.812453  1
  Zr  Zr8  1  0.945029  0.054971  0.000000  1
  Zr  Zr9  1  0.443887  0.052816  0.249294  1
  Zr  Zr10  1  0.138363  0.861637  0.500000  1
  Zr  Zr11  1  0.447184  0.056113  0.749294  1
  Zr  Zr12  1  0.633058  0.742015  0.187547  1
  Zr  Zr13  1  0.445029  0.554971  0.500000  1
  Ni  Ni14  1  0.339745  0.448369  0.105576  1
  Ni  Ni15  1  0.794585  0.193395  0.207126  1
  Ni  Ni16  1  0.797940  0.614564  0.493315  1
  Ni  Ni17  1  0.806605  0.205415  0.792874  1
  Ni  Ni18  1  0.584998  0.398789  0.291621  1
  Ni  Ni19  1  0.294585  0.693395  0.292874  1
  Ni  Ni20  1  0.051631  0.160255  0.605576  1
  Ni  Ni21  1  0.590608  0.989366  0.991636  1
  Ni  Ni22  1  0.101211  0.915002  0.791621  1
  Ni  Ni23  1  0.306605  0.705415  0.707126  1
  Ni  Ni24  1  0.885436  0.702060  0.993315  1
  Ni  Ni25  1  0.297940  0.114564  0.006685  1
  Ni  Ni26  1  0.090608  0.489366  0.508364  1
  Ni  Ni27  1  0.385436  0.202060  0.506685  1
  Ni  Ni28  1  0.551631  0.660255  0.894424  1
  Ni  Ni29  1  0.839745  0.948369  0.394424  1
  Ni  Ni30  1  0.010634  0.409392  0.008364  1
  Ni  Ni31  1  0.510634  0.909392  0.491636  1
  Ni  Ni32  1  0.601211  0.415002  0.708379  1
  Ni  Ni33  1  0.084998  0.898789  0.208379  1
