# generated using pymatgen
data_Zr3Sc4O12
_symmetry_space_group_name_H-M   'P 1'
_cell_length_a   6.20367449
_cell_length_b   6.24155653
_cell_length_c   31.01104640
_cell_angle_alpha   99.49454516
_cell_angle_beta   99.40920456
_cell_angle_gamma   99.68721722
_symmetry_Int_Tables_number   1
_chemical_formula_structural   Zr3Sc4O12
_chemical_formula_sum   'Zr15 Sc20 O60'
_cell_volume   1144.62209659
_cell_formula_units_Z   5
loop_
 _symmetry_equiv_pos_site_id
 _symmetry_equiv_pos_as_xyz
  1  'x, y, z'
loop_
 _atom_site_type_symbol
 _atom_site_label
 _atom_site_symmetry_multiplicity
 _atom_site_fract_x
 _atom_site_fract_y
 _atom_site_fract_z
 _atom_site_occupancy
  O  O0  1  0.062688  0.671158  0.984242  1
  O  O1  1  0.096771  0.940683  0.863721  1
  O  O2  1  0.066205  0.673206  0.784452  1
  O  O3  1  0.178450  0.421092  0.913663  1
  O  O4  1  0.094509  0.939727  0.663544  1
  O  O5  1  0.066316  0.672720  0.584756  1
  O  O6  1  0.321677  0.095605  0.987945  1
  O  O7  1  0.180191  0.427754  0.714176  1
  O  O8  1  0.095117  0.939631  0.463498  1
  O  O9  1  0.417871  0.820051  0.915906  1
  O  O10  1  0.419024  0.571425  0.836082  1
  O  O11  1  0.066116  0.672768  0.384787  1
  O  O12  1  0.327866  0.075320  0.786646  1
  O  O13  1  0.180145  0.427819  0.514352  1
  O  O14  1  0.100713  0.942923  0.263326  1
  O  O15  1  0.421674  0.820856  0.715155  1
  O  O16  1  0.578634  0.419207  0.963846  1
  O  O17  1  0.417858  0.569101  0.635984  1
  O  O18  1  0.573906  0.178146  0.884282  1
  O  O19  1  0.062649  0.670316  0.184559  1
  O  O20  1  0.327326  0.075030  0.586708  1
  O  O21  1  0.181584  0.429587  0.314620  1
  O  O22  1  0.681189  0.899815  0.812357  1
  O  O23  1  0.102977  0.944236  0.063664  1
  O  O24  1  0.422216  0.820793  0.515315  1
  O  O25  1  0.571137  0.424771  0.763938  1
  O  O26  1  0.418275  0.569804  0.436042  1
  O  O27  1  0.572558  0.179163  0.685009  1
  O  O28  1  0.327842  0.075820  0.387045  1
  O  O29  1  0.820965  0.584287  0.885218  1
  O  O30  1  0.179874  0.422505  0.114076  1
  O  O31  1  0.681868  0.899701  0.612625  1
  O  O32  1  0.420944  0.822295  0.315492  1
  O  O33  1  0.571543  0.424754  0.564017  1
  O  O34  1  0.420904  0.572766  0.236439  1
  O  O35  1  0.573057  0.179233  0.485101  1
  O  O36  1  0.918052  0.065099  0.934673  1
  O  O37  1  0.321623  0.096664  0.188397  1
  O  O38  1  0.821563  0.584055  0.685335  1
  O  O39  1  0.681917  0.900294  0.412625  1
  O  O40  1  0.933392  0.318305  0.818672  1
  O  O41  1  0.417151  0.821492  0.116241  1
  O  O42  1  0.572021  0.425069  0.364155  1
  O  O43  1  0.420591  0.573264  0.036420  1
  O  O44  1  0.573957  0.181116  0.285315  1
  O  O45  1  0.928430  0.071881  0.734936  1
  O  O46  1  0.821630  0.584078  0.485410  1
  O  O47  1  0.677387  0.898970  0.212010  1
  O  O48  1  0.931922  0.316788  0.618641  1
  O  O49  1  0.580189  0.419678  0.164106  1
  O  O50  1  0.575277  0.180044  0.084501  1
  O  O51  1  0.928170  0.071284  0.534830  1
  O  O52  1  0.824103  0.587492  0.285251  1
  O  O53  1  0.676606  0.898065  0.011693  1
  O  O54  1  0.932542  0.316734  0.418813  1
  O  O55  1  0.929402  0.071378  0.334449  1
  O  O56  1  0.823390  0.587984  0.085121  1
  O  O57  1  0.938517  0.313422  0.220705  1
  O  O58  1  0.918393  0.064398  0.134146  1
  O  O59  1  0.938773  0.315221  0.020524  1
  Sc  Sc60  1  0.995892  0.002184  0.598840  1
  Sc  Sc61  1  0.395342  0.678347  0.972235  1
  Sc  Sc62  1  0.685276  0.862825  0.878717  1
  Sc  Sc63  1  0.608038  0.312483  0.828416  1
  Sc  Sc64  1  0.696383  0.868652  0.679422  1
  Sc  Sc65  1  0.857567  0.394393  0.935733  1
  Sc  Sc66  1  0.606562  0.312473  0.628991  1
  Sc  Sc67  1  0.396667  0.678865  0.172822  1
  Sc  Sc68  1  0.696223  0.868420  0.479329  1
  Sc  Sc69  1  0.856588  0.392435  0.736948  1
  Sc  Sc70  1  0.607735  0.312787  0.429152  1
  Sc  Sc71  1  0.688773  0.866435  0.278697  1
  Sc  Sc72  1  0.996911  0.002784  0.799400  1
  Sc  Sc73  1  0.855977  0.391716  0.536860  1
  Sc  Sc74  1  0.606424  0.319218  0.229403  1
  Sc  Sc75  1  0.677808  0.860720  0.077916  1
  Sc  Sc76  1  0.856164  0.391715  0.336337  1
  Sc  Sc77  1  0.606093  0.318395  0.028420  1
  Sc  Sc78  1  0.995338  0.002148  0.398591  1
  Sc  Sc79  1  0.856944  0.394067  0.134943  1
  Zr  Zr80  1  0.131067  0.610374  0.860828  1
  Zr  Zr81  1  0.127874  0.608112  0.659345  1
  Zr  Zr82  1  0.314237  0.140712  0.922246  1
  Zr  Zr83  1  0.392722  0.695465  0.773244  1
  Zr  Zr84  1  0.128055  0.608251  0.459455  1
  Zr  Zr85  1  0.305552  0.140534  0.722209  1
  Zr  Zr86  1  0.393919  0.695109  0.573477  1
  Zr  Zr87  1  0.133913  0.609639  0.259649  1
  Zr  Zr88  1  0.305789  0.140426  0.522229  1
  Zr  Zr89  1  0.393464  0.695813  0.373781  1
  Zr  Zr90  1  0.136349  0.611151  0.061085  1
  Zr  Zr91  1  0.991413  0.994518  0.998302  1
  Zr  Zr92  1  0.307804  0.143706  0.322939  1
  Zr  Zr93  1  0.317792  0.144474  0.123086  1
  Zr  Zr94  1  0.989706  0.993809  0.197398  1
