# generated using pymatgen
data_Zr15VO32
_symmetry_space_group_name_H-M   'P 1'
_cell_length_a   10.38895064
_cell_length_b   5.26837127
_cell_length_c   10.76278047
_cell_angle_alpha   90.10545205
_cell_angle_beta   99.62009262
_cell_angle_gamma   90.16377379
_symmetry_Int_Tables_number   1
_chemical_formula_structural   Zr15VO32
_chemical_formula_sum   'Zr15 V1 O32'
_cell_volume   580.78975268
_cell_formula_units_Z   1
loop_
 _symmetry_equiv_pos_site_id
 _symmetry_equiv_pos_as_xyz
  1  'x, y, z'
loop_
 _atom_site_type_symbol
 _atom_site_label
 _atom_site_symmetry_multiplicity
 _atom_site_fract_x
 _atom_site_fract_y
 _atom_site_fract_z
 _atom_site_occupancy
  Zr  Zr0  1  0.136730  0.457763  0.853323  1
  Zr  Zr1  1  0.135362  0.043946  0.605479  1
  Zr  Zr2  1  0.137344  0.456152  0.355528  1
  Zr  Zr3  1  0.138900  0.042039  0.104770  1
  Zr  Zr4  1  0.361498  0.957155  0.894883  1
  Zr  Zr5  1  0.363256  0.546156  0.644647  1
  Zr  Zr6  1  0.362861  0.957143  0.396643  1
  Zr  Zr7  1  0.362340  0.541816  0.146014  1
  Zr  Zr8  1  0.640384  0.456977  0.852106  1
  Zr  Zr9  1  0.644988  0.046845  0.605381  1
  Zr  Zr10  1  0.641250  0.459185  0.358530  1
  Zr  Zr11  1  0.637910  0.044948  0.104620  1
  Zr  Zr12  1  0.860377  0.958283  0.892358  1
  Zr  Zr13  1  0.858688  0.956959  0.396386  1
  Zr  Zr14  1  0.861581  0.544371  0.145064  1
  V  V15  1  0.870556  0.553194  0.650200  1
  O  O16  1  0.034809  0.163497  0.919995  1
  O  O17  1  0.022189  0.334393  0.668891  1
  O  O18  1  0.033895  0.160111  0.424393  1
  O  O19  1  0.034014  0.332439  0.172184  1
  O  O20  1  0.222936  0.740951  0.988611  1
  O  O21  1  0.223237  0.757902  0.739061  1
  O  O22  1  0.222870  0.744054  0.490468  1
  O  O23  1  0.269236  0.243058  0.758714  1
  O  O24  1  0.224527  0.756978  0.240090  1
  O  O25  1  0.274030  0.257772  0.511390  1
  O  O26  1  0.275619  0.242217  0.261237  1
  O  O27  1  0.275396  0.257206  0.010141  1
  O  O28  1  0.465751  0.666350  0.827726  1
  O  O29  1  0.466805  0.835852  0.578440  1
  O  O30  1  0.534631  0.167046  0.921105  1
  O  O31  1  0.466117  0.665573  0.329293  1
  O  O32  1  0.533759  0.330893  0.671990  1
  O  O33  1  0.464540  0.834848  0.077697  1
  O  O34  1  0.538051  0.165254  0.422493  1
  O  O35  1  0.535154  0.334578  0.172496  1
  O  O36  1  0.723963  0.743755  0.987880  1
  O  O37  1  0.730686  0.750729  0.735506  1
  O  O38  1  0.726150  0.745099  0.491906  1
  O  O39  1  0.777282  0.243354  0.760053  1
  O  O40  1  0.724192  0.758028  0.239715  1
  O  O41  1  0.781426  0.269406  0.515073  1
  O  O42  1  0.775651  0.242083  0.261528  1
  O  O43  1  0.776153  0.257701  0.009948  1
  O  O44  1  0.961206  0.660684  0.820017  1
  O  O45  1  0.960473  0.817214  0.582466  1
  O  O46  1  0.965329  0.667520  0.328548  1
  O  O47  1  0.965901  0.830516  0.075012  1
