# generated using pymatgen
data_Zr4Pd2O
_symmetry_space_group_name_H-M   'P 1'
_cell_length_a   8.89205107
_cell_length_b   8.89205108
_cell_length_c   8.89205108
_cell_angle_alpha   59.99999998
_cell_angle_beta   59.99999998
_cell_angle_gamma   59.99999999
_symmetry_Int_Tables_number   1
_chemical_formula_structural   Zr4Pd2O
_chemical_formula_sum   'Zr16 Pd8 O4'
_cell_volume   497.15389694
_cell_formula_units_Z   4
loop_
 _symmetry_equiv_pos_site_id
 _symmetry_equiv_pos_as_xyz
  1  'x, y, z'
loop_
 _atom_site_type_symbol
 _atom_site_label
 _atom_site_symmetry_multiplicity
 _atom_site_fract_x
 _atom_site_fract_y
 _atom_site_fract_z
 _atom_site_occupancy
  O  O0  1  0.000000  0.500000  0.000000  1
  O  O1  1  0.500000  0.000000  0.000000  1
  O  O2  1  0.000000  0.000000  0.500000  1
  O  O3  1  0.000000  0.000000  0.000000  1
  Zr  Zr4  1  0.306186  0.943814  0.306186  1
  Zr  Zr5  1  0.693814  0.056186  0.693814  1
  Zr  Zr6  1  0.943814  0.306186  0.943814  1
  Zr  Zr7  1  0.943814  0.943814  0.306186  1
  Zr  Zr8  1  0.306186  0.306186  0.943814  1
  Zr  Zr9  1  0.000000  0.500000  0.500000  1
  Zr  Zr10  1  0.693814  0.056186  0.056186  1
  Zr  Zr11  1  0.943814  0.306186  0.306186  1
  Zr  Zr12  1  0.500000  0.500000  0.500000  1
  Zr  Zr13  1  0.500000  0.500000  0.000000  1
  Zr  Zr14  1  0.306186  0.943814  0.943814  1
  Zr  Zr15  1  0.500000  0.000000  0.500000  1
  Zr  Zr16  1  0.056186  0.693814  0.693814  1
  Zr  Zr17  1  0.056186  0.056186  0.693814  1
  Zr  Zr18  1  0.693814  0.693814  0.056186  1
  Zr  Zr19  1  0.056186  0.693814  0.056186  1
  Pd  Pd20  1  0.355137  0.714954  0.714954  1
  Pd  Pd21  1  0.714954  0.355137  0.714954  1
  Pd  Pd22  1  0.714954  0.714954  0.355137  1
  Pd  Pd23  1  0.285046  0.285046  0.285046  1
  Pd  Pd24  1  0.285046  0.644863  0.285046  1
  Pd  Pd25  1  0.644863  0.285046  0.285046  1
  Pd  Pd26  1  0.285046  0.285046  0.644863  1
  Pd  Pd27  1  0.714954  0.714954  0.714954  1
