# generated using pymatgen
data_Cu3Pd
_symmetry_space_group_name_H-M   'P 1'
_cell_length_a   3.72125418
_cell_length_b   3.72123967
_cell_length_c   25.86954388
_cell_angle_alpha   90.00046070
_cell_angle_beta   89.99997831
_cell_angle_gamma   90.00022849
_symmetry_Int_Tables_number   1
_chemical_formula_structural   Cu3Pd
_chemical_formula_sum   'Cu21 Pd7'
_cell_volume   358.23313116
_cell_formula_units_Z   7
loop_
 _symmetry_equiv_pos_site_id
 _symmetry_equiv_pos_as_xyz
  1  'x, y, z'
loop_
 _atom_site_type_symbol
 _atom_site_label
 _atom_site_symmetry_multiplicity
 _atom_site_fract_x
 _atom_site_fract_y
 _atom_site_fract_z
 _atom_site_occupancy
  Cu  Cu0  1  0.499995  0.500004  0.998605  1
  Cu  Cu1  1  0.499994  0.499997  0.285690  1
  Cu  Cu2  1  0.000014  0.499997  0.639045  1
  Cu  Cu3  1  -0.000000  0.500008  0.926163  1
  Cu  Cu4  1  0.499999  0.999996  0.639044  1
  Cu  Cu5  1  0.999999  0.000007  0.568401  1
  Cu  Cu6  1  0.500000  0.000006  0.926164  1
  Cu  Cu7  1  0.500001  0.000009  0.781621  1
  Cu  Cu8  1  -0.000004  0.500006  0.357006  1
  Cu  Cu9  1  0.500005  -0.000004  0.214225  1
  Cu  Cu10  1  0.999996  0.500007  0.498277  1
  Cu  Cu11  1  0.500002  0.000002  0.070594  1
  Cu  Cu12  1  0.999994  0.499992  0.070595  1
  Cu  Cu13  1  0.000004  0.000001  0.709661  1
  Cu  Cu14  1  0.500002  0.000001  0.357006  1
  Cu  Cu15  1  0.999997  0.499995  0.214225  1
  Cu  Cu16  1  0.500001  0.499993  0.142802  1
  Cu  Cu17  1  0.000003  0.999993  0.853855  1
  Cu  Cu18  1  0.500011  0.999993  0.498279  1
  Cu  Cu19  1  0.000000  0.500004  0.781618  1
  Cu  Cu20  1  0.500000  0.500001  0.428014  1
  Pd  Pd21  1  -0.000003  0.000006  0.427865  1
  Pd  Pd22  1  0.000008  -0.000003  0.142345  1
  Pd  Pd23  1  0.499999  0.499998  0.710117  1
  Pd  Pd24  1  0.500004  0.499995  0.853902  1
  Pd  Pd25  1  0.499990  0.499994  0.568357  1
  Pd  Pd26  1  0.999993  0.000002  0.998335  1
  Pd  Pd27  1  -0.000002  0.000000  0.285889  1
