# generated using pymatgen
data_Cu3WO6
_symmetry_space_group_name_H-M   'P 1'
_cell_length_a   9.91842609
_cell_length_b   9.91842609
_cell_length_c   9.91842609
_cell_angle_alpha   90.00000000
_cell_angle_beta   90.00000000
_cell_angle_gamma   90.00000000
_symmetry_Int_Tables_number   1
_chemical_formula_structural   Cu3WO6
_chemical_formula_sum   'Cu24 W8 O48'
_cell_volume   975.72691327
_cell_formula_units_Z   8
loop_
 _symmetry_equiv_pos_site_id
 _symmetry_equiv_pos_as_xyz
  1  'x, y, z'
loop_
 _atom_site_type_symbol
 _atom_site_label
 _atom_site_symmetry_multiplicity
 _atom_site_fract_x
 _atom_site_fract_y
 _atom_site_fract_z
 _atom_site_occupancy
  Cu  Cu0  1  0.594957  0.743403  0.364037  1
  Cu  Cu1  1  0.635963  0.094957  0.756597  1
  Cu  Cu2  1  0.364037  0.594957  0.743403  1
  Cu  Cu3  1  0.256597  0.635963  0.405043  1
  Cu  Cu4  1  0.405043  0.243403  0.135963  1
  Cu  Cu5  1  0.864037  0.594957  0.756597  1
  Cu  Cu6  1  0.256597  0.864037  0.905043  1
  Cu  Cu7  1  0.905043  0.243403  0.364037  1
  Cu  Cu8  1  0.243403  0.135963  0.405043  1
  Cu  Cu9  1  0.243403  0.364037  0.905043  1
  Cu  Cu10  1  0.756597  0.864037  0.594957  1
  Cu  Cu11  1  0.135963  0.405043  0.243403  1
  Cu  Cu12  1  0.864037  0.905043  0.256597  1
  Cu  Cu13  1  0.594957  0.756597  0.864037  1
  Cu  Cu14  1  0.364037  0.905043  0.243403  1
  Cu  Cu15  1  0.743403  0.364037  0.594957  1
  Cu  Cu16  1  0.635963  0.405043  0.256597  1
  Cu  Cu17  1  0.094957  0.756597  0.635963  1
  Cu  Cu18  1  0.405043  0.256597  0.635963  1
  Cu  Cu19  1  0.094957  0.743403  0.135963  1
  Cu  Cu20  1  0.756597  0.635963  0.094957  1
  Cu  Cu21  1  0.135963  0.094957  0.743403  1
  Cu  Cu22  1  0.743403  0.135963  0.094957  1
  Cu  Cu23  1  0.905043  0.256597  0.864037  1
  W  W24  1  0.617011  0.117011  0.382989  1
  W  W25  1  0.882989  0.617011  0.382989  1
  W  W26  1  0.117011  0.382989  0.617011  1
  W  W27  1  0.117011  0.117011  0.117011  1
  W  W28  1  0.382989  0.882989  0.617011  1
  W  W29  1  0.617011  0.382989  0.882989  1
  W  W30  1  0.882989  0.882989  0.882989  1
  W  W31  1  0.382989  0.617011  0.117011  1
  O  O32  1  0.947244  0.462701  0.302862  1
  O  O33  1  0.447244  0.037299  0.697138  1
  O  O34  1  0.552756  0.537299  0.802862  1
  O  O35  1  0.908206  0.721099  0.195683  1
  O  O36  1  0.462701  0.197138  0.447244  1
  O  O37  1  0.447244  0.462701  0.197138  1
  O  O38  1  0.697138  0.447244  0.037299  1
  O  O39  1  0.804317  0.091794  0.278901  1
  O  O40  1  0.408206  0.778901  0.804317  1
  O  O41  1  0.962701  0.197138  0.052756  1
  O  O42  1  0.552756  0.962701  0.302862  1
  O  O43  1  0.804317  0.408206  0.778901  1
  O  O44  1  0.695683  0.908206  0.778901  1
  O  O45  1  0.947244  0.037299  0.802862  1
  O  O46  1  0.091794  0.221099  0.304317  1
  O  O47  1  0.195683  0.908206  0.721099  1
  O  O48  1  0.462701  0.302862  0.947244  1
  O  O49  1  0.408206  0.721099  0.304317  1
  O  O50  1  0.537299  0.697138  0.052756  1
  O  O51  1  0.037299  0.802862  0.947244  1
  O  O52  1  0.197138  0.052756  0.962701  1
  O  O53  1  0.697138  0.052756  0.537299  1
  O  O54  1  0.221099  0.304317  0.091794  1
  O  O55  1  0.537299  0.802862  0.552756  1
  O  O56  1  0.197138  0.447244  0.462701  1
  O  O57  1  0.591794  0.221099  0.195683  1
  O  O58  1  0.278901  0.695683  0.591794  1
  O  O59  1  0.091794  0.278901  0.804317  1
  O  O60  1  0.695683  0.591794  0.278901  1
  O  O61  1  0.778901  0.695683  0.908206  1
  O  O62  1  0.721099  0.304317  0.408206  1
  O  O63  1  0.052756  0.537299  0.697138  1
  O  O64  1  0.052756  0.962701  0.197138  1
  O  O65  1  0.778901  0.804317  0.408206  1
  O  O66  1  0.908206  0.778901  0.695683  1
  O  O67  1  0.278901  0.804317  0.091794  1
  O  O68  1  0.304317  0.091794  0.221099  1
  O  O69  1  0.802862  0.552756  0.537299  1
  O  O70  1  0.302862  0.552756  0.962701  1
  O  O71  1  0.302862  0.947244  0.462701  1
  O  O72  1  0.037299  0.697138  0.447244  1
  O  O73  1  0.962701  0.302862  0.552756  1
  O  O74  1  0.221099  0.195683  0.591794  1
  O  O75  1  0.304317  0.408206  0.721099  1
  O  O76  1  0.195683  0.591794  0.221099  1
  O  O77  1  0.591794  0.278901  0.695683  1
  O  O78  1  0.802862  0.947244  0.037299  1
  O  O79  1  0.721099  0.195683  0.908206  1
