# generated using pymatgen
data_Zr(MoO4)2
_symmetry_space_group_name_H-M   'P 1'
_cell_length_a   5.06389880
_cell_length_b   6.20857408
_cell_length_c   6.20857481
_cell_angle_alpha   60.59131501
_cell_angle_beta   99.27101057
_cell_angle_gamma   99.27100520
_symmetry_Int_Tables_number   1
_chemical_formula_structural   Zr(MoO4)2
_chemical_formula_sum   'Zr1 Mo2 O8'
_cell_volume   167.05593409
_cell_formula_units_Z   1
loop_
 _symmetry_equiv_pos_site_id
 _symmetry_equiv_pos_as_xyz
  1  'x, y, z'
loop_
 _atom_site_type_symbol
 _atom_site_label
 _atom_site_symmetry_multiplicity
 _atom_site_fract_x
 _atom_site_fract_y
 _atom_site_fract_z
 _atom_site_occupancy
  Zr  Zr0  1  0.000000  0.000000  0.000000  1
  Mo  Mo1  1  0.866549  0.320641  0.320641  1
  Mo  Mo2  1  0.133451  0.679359  0.679359  1
  O  O3  1  0.777758  0.642077  0.147550  1
  O  O4  1  0.222243  0.852450  0.357923  1
  O  O5  1  0.222242  0.357923  0.852450  1
  O  O6  1  0.232637  0.852942  0.852942  1
  O  O7  1  0.767363  0.147058  0.147058  1
  O  O8  1  0.211967  0.348166  0.348166  1
  O  O9  1  0.788033  0.651834  0.651834  1
  O  O10  1  0.777757  0.147550  0.642077  1
