# generated using pymatgen
data_Zr7Ni10
_symmetry_space_group_name_H-M   'P 1'
_cell_length_a   9.13403513
_cell_length_b   9.14649548
_cell_length_c   12.36723213
_cell_angle_alpha   90.00000000
_cell_angle_beta   90.00000000
_cell_angle_gamma   90.00000000
_symmetry_Int_Tables_number   1
_chemical_formula_structural   Zr7Ni10
_chemical_formula_sum   'Zr28 Ni40'
_cell_volume   1033.21312438
_cell_formula_units_Z   4
loop_
 _symmetry_equiv_pos_site_id
 _symmetry_equiv_pos_as_xyz
  1  'x, y, z'
loop_
 _atom_site_type_symbol
 _atom_site_label
 _atom_site_symmetry_multiplicity
 _atom_site_fract_x
 _atom_site_fract_y
 _atom_site_fract_z
 _atom_site_occupancy
  Zr  Zr0  1  0.185566  0.813927  0.496959  1
  Zr  Zr1  1  0.499808  0.501096  0.691299  1
  Zr  Zr2  1  0.000000  0.500000  0.500000  1
  Zr  Zr3  1  0.314434  0.313927  0.496959  1
  Zr  Zr4  1  0.500192  0.001096  0.808701  1
  Zr  Zr5  1  0.185566  0.686073  0.996959  1
  Zr  Zr6  1  0.252593  0.248868  0.746286  1
  Zr  Zr7  1  0.499808  0.998904  0.191299  1
  Zr  Zr8  1  0.752593  0.251132  0.253714  1
  Zr  Zr9  1  0.814434  0.313927  0.003041  1
  Zr  Zr10  1  0.685566  0.686073  0.503041  1
  Zr  Zr11  1  0.500192  0.498904  0.308701  1
  Zr  Zr12  1  0.685566  0.813927  0.003041  1
  Zr  Zr13  1  0.814434  0.186073  0.503041  1
  Zr  Zr14  1  -0.000192  0.501096  0.808701  1
  Zr  Zr15  1  0.314434  0.186073  0.996959  1
  Zr  Zr16  1  0.000000  0.000000  0.000000  1
  Zr  Zr17  1  0.247407  0.748868  0.746286  1
  Zr  Zr18  1  0.247407  0.751132  0.246286  1
  Zr  Zr19  1  0.752593  0.248868  0.753714  1
  Zr  Zr20  1  -0.000192  0.998904  0.308701  1
  Zr  Zr21  1  0.500000  0.000000  0.500000  1
  Zr  Zr22  1  0.747407  0.748868  0.753714  1
  Zr  Zr23  1  0.747407  0.751132  0.253714  1
  Zr  Zr24  1  0.252593  0.251132  0.246286  1
  Zr  Zr25  1  0.000192  0.001096  0.691299  1
  Zr  Zr26  1  0.500000  0.500000  0.000000  1
  Zr  Zr27  1  0.000192  0.498904  0.191299  1
  Ni  Ni28  1  0.494478  0.793595  0.647429  1
  Ni  Ni29  1  0.606418  0.105133  0.998232  1
  Ni  Ni30  1  0.606418  0.394867  0.498232  1
  Ni  Ni31  1  0.986596  0.708222  0.643559  1
  Ni  Ni32  1  0.013404  0.208222  0.856441  1
  Ni  Ni33  1  0.790379  0.492438  0.646662  1
  Ni  Ni34  1  0.106418  0.105133  0.501768  1
  Ni  Ni35  1  0.994478  0.793595  0.852571  1
  Ni  Ni36  1  0.893582  0.605133  0.998232  1
  Ni  Ni37  1  0.793101  0.006758  0.856340  1
  Ni  Ni38  1  0.206899  0.506758  0.643660  1
  Ni  Ni39  1  0.513404  0.208222  0.643559  1
  Ni  Ni40  1  0.106418  0.394867  0.001768  1
  Ni  Ni41  1  0.986596  0.791778  0.143559  1
  Ni  Ni42  1  0.005522  0.293595  0.647429  1
  Ni  Ni43  1  0.290379  0.007562  0.353338  1
  Ni  Ni44  1  0.290379  0.492438  0.853338  1
  Ni  Ni45  1  0.706899  0.993242  0.356340  1
  Ni  Ni46  1  0.486596  0.791778  0.356441  1
  Ni  Ni47  1  0.005522  0.206405  0.147429  1
  Ni  Ni48  1  0.486596  0.708222  0.856441  1
  Ni  Ni49  1  0.709621  0.992438  0.646662  1
  Ni  Ni50  1  0.505522  0.293595  0.852571  1
  Ni  Ni51  1  0.393582  0.894867  0.001768  1
  Ni  Ni52  1  0.293101  0.493242  0.143660  1
  Ni  Ni53  1  0.706899  0.506758  0.856340  1
  Ni  Ni54  1  0.505522  0.206405  0.352571  1
  Ni  Ni55  1  0.293101  0.006758  0.643660  1
  Ni  Ni56  1  0.793101  0.493242  0.356340  1
  Ni  Ni57  1  0.206899  0.993242  0.143660  1
  Ni  Ni58  1  0.709621  0.507562  0.146662  1
  Ni  Ni59  1  0.494478  0.706405  0.147429  1
  Ni  Ni60  1  0.209621  0.507562  0.353338  1
  Ni  Ni61  1  0.994478  0.706405  0.352571  1
  Ni  Ni62  1  0.013404  0.291778  0.356441  1
  Ni  Ni63  1  0.393582  0.605133  0.501768  1
  Ni  Ni64  1  0.893582  0.894867  0.498232  1
  Ni  Ni65  1  0.209621  0.992438  0.853338  1
  Ni  Ni66  1  0.790379  0.007562  0.146662  1
  Ni  Ni67  1  0.513404  0.291778  0.143559  1
