# generated using pymatgen
data_ZrNbO4
_symmetry_space_group_name_H-M   'P 1'
_cell_length_a   6.53910463
_cell_length_b   6.36032795
_cell_length_c   6.53910463
_cell_angle_alpha   132.93689501
_cell_angle_beta   70.97231606
_cell_angle_gamma   133.00832038
_symmetry_Int_Tables_number   1
_chemical_formula_structural   ZrNbO4
_chemical_formula_sum   'Zr2 Nb2 O8'
_cell_volume   140.63328858
_cell_formula_units_Z   2
loop_
 _symmetry_equiv_pos_site_id
 _symmetry_equiv_pos_as_xyz
  1  'x, y, z'
loop_
 _atom_site_type_symbol
 _atom_site_label
 _atom_site_symmetry_multiplicity
 _atom_site_fract_x
 _atom_site_fract_y
 _atom_site_fract_z
 _atom_site_occupancy
  Zr  Zr0  1  0.381561  0.750000  0.131561  1
  Zr  Zr1  1  0.618439  0.250000  0.868439  1
  Nb  Nb2  1  0.853002  0.750000  0.603002  1
  Nb  Nb3  1  0.146998  0.250000  0.396998  1
  O  O4  1  0.011588  0.720790  0.270177  1
  O  O5  1  0.450613  0.220790  0.209202  1
  O  O6  1  0.762052  0.806116  0.116727  1
  O  O7  1  0.689389  0.306116  0.544064  1
  O  O8  1  0.310611  0.693884  0.455936  1
  O  O9  1  0.237948  0.193884  0.883273  1
  O  O10  1  0.549387  0.779210  0.790798  1
  O  O11  1  0.988412  0.279210  0.729823  1
