# generated using pymatgen
data_ZrZn22
_symmetry_space_group_name_H-M   'P 1'
_cell_length_a   10.01495694
_cell_length_b   10.01495694
_cell_length_c   10.01495694
_cell_angle_alpha   60.00000000
_cell_angle_beta   60.00000001
_cell_angle_gamma   60.00000002
_symmetry_Int_Tables_number   1
_chemical_formula_structural   ZrZn22
_chemical_formula_sum   'Zr2 Zn44'
_cell_volume   710.28437548
_cell_formula_units_Z   2
loop_
 _symmetry_equiv_pos_site_id
 _symmetry_equiv_pos_as_xyz
  1  'x, y, z'
loop_
 _atom_site_type_symbol
 _atom_site_label
 _atom_site_symmetry_multiplicity
 _atom_site_fract_x
 _atom_site_fract_y
 _atom_site_fract_z
 _atom_site_occupancy
  Zn  Zn0  1  0.000000  0.000000  0.000000  1
  Zn  Zn1  1  0.000000  0.000000  0.500000  1
  Zn  Zn2  1  0.500000  0.000000  0.000000  1
  Zn  Zn3  1  0.000000  0.500000  0.000000  1
  Zn  Zn4  1  0.500000  0.500000  0.500000  1
  Zn  Zn5  1  0.500000  0.500000  0.000000  1
  Zn  Zn6  1  0.000000  0.500000  0.500000  1
  Zn  Zn7  1  0.500000  0.000000  0.500000  1
  Zn  Zn8  1  0.735449  0.014551  0.014551  1
  Zn  Zn9  1  0.985449  0.985449  0.264551  1
  Zn  Zn10  1  0.264551  0.264551  0.985449  1
  Zn  Zn11  1  0.985449  0.264551  0.264551  1
  Zn  Zn12  1  0.985449  0.264551  0.985449  1
  Zn  Zn13  1  0.264551  0.985449  0.264551  1
  Zn  Zn14  1  0.014551  0.735449  0.014551  1
  Zn  Zn15  1  0.014551  0.014551  0.735449  1
  Zn  Zn16  1  0.735449  0.735449  0.014551  1
  Zn  Zn17  1  0.735449  0.014551  0.735449  1
  Zn  Zn18  1  0.264551  0.985449  0.985449  1
  Zn  Zn19  1  0.014551  0.735449  0.735449  1
  Zn  Zn20  1  0.180912  0.180912  0.695776  1
  Zn  Zn21  1  0.819088  0.304224  0.557599  1
  Zn  Zn22  1  0.557599  0.819088  0.819088  1
  Zn  Zn23  1  0.819088  0.557599  0.819088  1
  Zn  Zn24  1  0.304224  0.819088  0.557599  1
  Zn  Zn25  1  0.304224  0.557599  0.819088  1
  Zn  Zn26  1  0.557599  0.304224  0.819088  1
  Zn  Zn27  1  0.695776  0.180912  0.180912  1
  Zn  Zn28  1  0.180912  0.695776  0.180912  1
  Zn  Zn29  1  0.442401  0.180912  0.695776  1
  Zn  Zn30  1  0.180912  0.442401  0.695776  1
  Zn  Zn31  1  0.442401  0.180912  0.180912  1
  Zn  Zn32  1  0.695776  0.180912  0.442401  1
  Zn  Zn33  1  0.180912  0.695776  0.442401  1
  Zn  Zn34  1  0.180912  0.442401  0.180912  1
  Zn  Zn35  1  0.557599  0.819088  0.304224  1
  Zn  Zn36  1  0.819088  0.557599  0.304224  1
  Zn  Zn37  1  0.819088  0.819088  0.557599  1
  Zn  Zn38  1  0.819088  0.819088  0.304224  1
  Zn  Zn39  1  0.304224  0.819088  0.819088  1
  Zn  Zn40  1  0.819088  0.304224  0.819088  1
  Zn  Zn41  1  0.695776  0.442401  0.180912  1
  Zn  Zn42  1  0.442401  0.695776  0.180912  1
  Zn  Zn43  1  0.180912  0.180912  0.442401  1
  Zr  Zr44  1  0.375000  0.375000  0.375000  1
  Zr  Zr45  1  0.625000  0.625000  0.625000  1
