# generated using pymatgen
data_Zr3Cd2
_symmetry_space_group_name_H-M   'P 1'
_cell_length_a   5.59515531
_cell_length_b   5.23551553
_cell_length_c   5.61738200
_cell_angle_alpha   90.00215147
_cell_angle_beta   90.00511714
_cell_angle_gamma   90.00120529
_symmetry_Int_Tables_number   1
_chemical_formula_structural   Zr3Cd2
_chemical_formula_sum   'Zr3 Cd2'
_cell_volume   164.55290512
_cell_formula_units_Z   1
loop_
 _symmetry_equiv_pos_site_id
 _symmetry_equiv_pos_as_xyz
  1  'x, y, z'
loop_
 _atom_site_type_symbol
 _atom_site_label
 _atom_site_symmetry_multiplicity
 _atom_site_fract_x
 _atom_site_fract_y
 _atom_site_fract_z
 _atom_site_occupancy
  Zr  Zr0  1  1.000000  0.999999  0.000001  1
  Zr  Zr1  1  0.000004  0.999998  0.500001  1
  Zr  Zr2  1  0.499996  0.000003  1.000000  1
  Cd  Cd3  1  0.500005  1.000000  0.499999  1
  Cd  Cd4  1  0.499995  0.500000  0.500000  1
