# generated using pymatgen
data_CuNi4O5
_symmetry_space_group_name_H-M   'P 1'
_cell_length_a   2.98112320
_cell_length_b   5.15971616
_cell_length_c   12.29602131
_cell_angle_alpha   94.09870890
_cell_angle_beta   96.96269536
_cell_angle_gamma   90.00000000
_symmetry_Int_Tables_number   1
_chemical_formula_structural   CuNi4O5
_chemical_formula_sum   'Cu2 Ni8 O10'
_cell_volume   187.25217500
_cell_formula_units_Z   2
loop_
 _symmetry_equiv_pos_site_id
 _symmetry_equiv_pos_as_xyz
  1  'x, y, z'
loop_
 _atom_site_type_symbol
 _atom_site_label
 _atom_site_symmetry_multiplicity
 _atom_site_fract_x
 _atom_site_fract_y
 _atom_site_fract_z
 _atom_site_occupancy
  Cu  Cu0  1  0.100012  0.700469  0.200024  1
  Cu  Cu1  1  0.299988  0.099531  0.599976  1
  Ni  Ni2  1  0.400352  0.799736  0.800705  1
  Ni  Ni3  1  0.899494  0.299917  0.798989  1
  Ni  Ni4  1  0.800029  0.600340  0.600060  1
  Ni  Ni5  1  0.700000  0.900000  0.400000  1
  Ni  Ni6  1  0.200000  0.400000  0.400000  1
  Ni  Ni7  1  0.500506  0.500083  0.001011  1
  Ni  Ni8  1  0.599971  0.199660  0.199940  1
  Ni  Ni9  1  0.999648  0.000264  0.999295  1
  O  O10  1  0.950337  0.648930  0.900674  1
  O  O11  1  0.851060  0.945737  0.702118  1
  O  O12  1  0.350356  0.454047  0.700711  1
  O  O13  1  0.249440  0.746682  0.498879  1
  O  O14  1  0.449663  0.151070  0.899326  1
  O  O15  1  0.548940  0.854263  0.097882  1
  O  O16  1  0.651099  0.546594  0.302198  1
  O  O17  1  0.748901  0.253406  0.497802  1
  O  O18  1  0.049644  0.345953  0.099289  1
  O  O19  1  0.150560  0.053318  0.301121  1
