# generated using pymatgen
data_Zr4MnO9
_symmetry_space_group_name_H-M   'P 1'
_cell_length_a   6.34907139
_cell_length_b   5.21126400
_cell_length_c   6.38112225
_cell_angle_alpha   115.35667244
_cell_angle_beta   79.52062704
_cell_angle_gamma   114.94020365
_symmetry_Int_Tables_number   1
_chemical_formula_structural   Zr4MnO9
_chemical_formula_sum   'Zr4 Mn1 O9'
_cell_volume   172.99810682
_cell_formula_units_Z   1
loop_
 _symmetry_equiv_pos_site_id
 _symmetry_equiv_pos_as_xyz
  1  'x, y, z'
loop_
 _atom_site_type_symbol
 _atom_site_label
 _atom_site_symmetry_multiplicity
 _atom_site_fract_x
 _atom_site_fract_y
 _atom_site_fract_z
 _atom_site_occupancy
  Zr  Zr0  1  0.420074  0.640846  0.802859  1
  Zr  Zr1  1  0.005471  0.983606  0.030070  1
  Zr  Zr2  1  0.614563  0.426483  0.230823  1
  Zr  Zr3  1  0.774611  0.216795  0.605037  1
  Mn  Mn4  1  0.202007  0.764640  0.362360  1
  O  O5  1  0.087905  0.618612  0.723609  1
  O  O6  1  0.688774  0.556510  0.947453  1
  O  O7  1  0.484953  0.738426  0.473957  1
  O  O8  1  0.231887  0.391604  0.006187  1
  O  O9  1  0.343824  0.001867  0.097021  1
  O  O10  1  0.485552  0.271594  0.539144  1
  O  O11  1  0.756988  0.012123  0.837869  1
  O  O12  1  0.866928  0.322551  0.296487  1
  O  O13  1  0.936462  0.904342  0.347124  1
