# generated using pymatgen
data_Zr2Ni7
_symmetry_space_group_name_H-M   'P 1'
_cell_length_a   4.69122839
_cell_length_b   4.73733160
_cell_length_c   12.14906951
_cell_angle_alpha   87.16741545
_cell_angle_beta   84.27194947
_cell_angle_gamma   60.32140975
_symmetry_Int_Tables_number   1
_chemical_formula_structural   Zr2Ni7
_chemical_formula_sum   'Zr4 Ni14'
_cell_volume   233.40897212
_cell_formula_units_Z   2
loop_
 _symmetry_equiv_pos_site_id
 _symmetry_equiv_pos_as_xyz
  1  'x, y, z'
loop_
 _atom_site_type_symbol
 _atom_site_label
 _atom_site_symmetry_multiplicity
 _atom_site_fract_x
 _atom_site_fract_y
 _atom_site_fract_z
 _atom_site_occupancy
  Ni  Ni0  1  0.750106  0.000000  0.250007  1
  Ni  Ni1  1  0.249894  0.000000  0.749993  1
  Ni  Ni2  1  0.961254  0.668288  0.078203  1
  Ni  Ni3  1  0.370458  0.668288  0.921797  1
  Ni  Ni4  1  0.038746  0.331712  0.921797  1
  Ni  Ni5  1  0.629542  0.331712  0.078203  1
  Ni  Ni6  1  0.870640  0.668273  0.421793  1
  Ni  Ni7  1  0.461086  0.668273  0.578206  1
  Ni  Ni8  1  0.129360  0.331727  0.578206  1
  Ni  Ni9  1  0.538914  0.331727  0.421793  1
  Ni  Ni10  1  0.750080  0.500013  0.249998  1
  Ni  Ni11  1  0.749907  0.500013  0.750002  1
  Ni  Ni12  1  0.249920  0.499987  0.750002  1
  Ni  Ni13  1  0.250093  0.499987  0.249998  1
  Zr  Zr14  1  0.778668  0.000000  0.614133  1
  Zr  Zr15  1  0.221332  0.000000  0.385867  1
  Zr  Zr16  1  0.721139  0.000000  0.885840  1
  Zr  Zr17  1  0.278861  0.000000  0.114160  1
