# generated using pymatgen
data_Cu(RhO2)2
_symmetry_space_group_name_H-M   'P 1'
_cell_length_a   6.09598478
_cell_length_b   6.09598478
_cell_length_c   6.09598478
_cell_angle_alpha   90.12170440
_cell_angle_beta   119.92975885
_cell_angle_gamma   119.92975880
_symmetry_Int_Tables_number   1
_chemical_formula_structural   Cu(RhO2)2
_chemical_formula_sum   'Cu2 Rh4 O8'
_cell_volume   160.35274814
_cell_formula_units_Z   2
loop_
 _symmetry_equiv_pos_site_id
 _symmetry_equiv_pos_as_xyz
  1  'x, y, z'
loop_
 _atom_site_type_symbol
 _atom_site_label
 _atom_site_symmetry_multiplicity
 _atom_site_fract_x
 _atom_site_fract_y
 _atom_site_fract_z
 _atom_site_occupancy
  O  O0  1  0.227729  0.613362  0.385632  1
  O  O1  1  0.772271  0.157903  0.385632  1
  O  O2  1  0.727729  0.135632  0.863362  1
  O  O3  1  0.772271  0.614368  0.386638  1
  O  O4  1  0.227729  0.614368  0.842097  1
  O  O5  1  0.272271  0.136638  0.864368  1
  O  O6  1  0.272271  0.135632  0.407903  1
  O  O7  1  0.727729  0.592097  0.864368  1
  Cu  Cu8  1  0.000000  0.000000  0.000000  1
  Cu  Cu9  1  0.500000  0.750000  0.250000  1
  Rh  Rh10  1  0.750000  0.375000  0.125000  1
  Rh  Rh11  1  0.750000  0.375000  0.625000  1
  Rh  Rh12  1  0.250000  0.375000  0.625000  1
  Rh  Rh13  1  0.250000  0.875000  0.625000  1
