# generated using pymatgen
data_Zr25Sc6O59
_symmetry_space_group_name_H-M   'P 1'
_cell_length_a   13.08281383
_cell_length_b   13.07842367
_cell_length_c   13.08596600
_cell_angle_alpha   99.87979780
_cell_angle_beta   99.91683076
_cell_angle_gamma   100.04026142
_symmetry_Int_Tables_number   1
_chemical_formula_structural   Zr25Sc6O59
_chemical_formula_sum   'Zr50 Sc12 O118'
_cell_volume   2124.38144360
_cell_formula_units_Z   2
loop_
 _symmetry_equiv_pos_site_id
 _symmetry_equiv_pos_as_xyz
  1  'x, y, z'
loop_
 _atom_site_type_symbol
 _atom_site_label
 _atom_site_symmetry_multiplicity
 _atom_site_fract_x
 _atom_site_fract_y
 _atom_site_fract_z
 _atom_site_occupancy
  Zr  Zr0  1  0.148392  0.773730  0.818683  1
  Zr  Zr1  1  0.085082  0.386920  0.828532  1
  Zr  Zr2  1  0.088416  0.511272  0.615475  1
  Zr  Zr3  1  0.166003  0.910951  0.613871  1
  Zr  Zr4  1  0.032270  0.112991  0.603555  1
  Zr  Zr5  1  0.055162  0.276548  0.418889  1
  Zr  Zr6  1  0.134797  0.673206  0.437178  1
  Zr  Zr7  1  0.085353  0.447826  0.231980  1
  Zr  Zr8  1  0.008928  0.019938  0.204018  1
  Zr  Zr9  1  0.015995  0.196706  0.014026  1
  Zr  Zr10  1  0.176885  0.845780  0.222775  1
  Zr  Zr11  1  0.111150  0.608070  0.039499  1
  Zr  Zr12  1  0.222287  0.178391  0.844682  1
  Zr  Zr13  1  0.393689  0.959496  0.887163  1
  Zr  Zr14  1  0.325741  0.563046  0.859429  1
  Zr  Zr15  1  0.261773  0.328591  0.655932  1
  Zr  Zr16  1  0.341558  0.735530  0.670246  1
  Zr  Zr17  1  0.227681  0.090193  0.446855  1
  Zr  Zr18  1  0.302008  0.488184  0.469569  1
  Zr  Zr19  1  0.383352  0.905421  0.489486  1
  Zr  Zr20  1  0.234419  0.236994  0.237733  1
  Zr  Zr21  1  0.327552  0.658895  0.262736  1
  Zr  Zr22  1  0.272196  0.418761  0.066615  1
  Zr  Zr23  1  0.194263  0.010928  0.018230  1
  Zr  Zr24  1  0.553552  0.770134  0.910751  1
  Zr  Zr25  1  0.492141  0.384086  0.905652  1
  Zr  Zr26  1  0.585324  0.935068  0.724514  1
  Zr  Zr27  1  0.438196  0.141594  0.674375  1
  Zr  Zr28  1  0.514374  0.530280  0.696836  1
  Zr  Zr29  1  0.533048  0.695678  0.511806  1
  Zr  Zr30  1  0.472417  0.303987  0.488649  1
  Zr  Zr31  1  0.492284  0.472230  0.306146  1
  Zr  Zr32  1  0.564082  0.859794  0.325248  1
  Zr  Zr33  1  0.419352  0.064051  0.273135  1
  Zr  Zr34  1  0.511326  0.617715  0.095691  1
  Zr  Zr35  1  0.446932  0.231080  0.090982  1
  Zr  Zr36  1  0.617805  0.169910  0.911032  1
  Zr  Zr37  1  0.804211  0.985346  0.977684  1
  Zr  Zr38  1  0.731267  0.583349  0.933680  1
  Zr  Zr39  1  0.681089  0.343875  0.731910  1
  Zr  Zr40  1  0.770725  0.761732  0.762588  1
  Zr  Zr41  1  0.622987  0.095469  0.510584  1
  Zr  Zr42  1  0.705555  0.510430  0.530287  1
  Zr  Zr43  1  0.775294  0.910027  0.553443  1
  Zr  Zr44  1  0.665095  0.263757  0.331323  1
  Zr  Zr45  1  0.744054  0.672014  0.343317  1
  Zr  Zr46  1  0.678885  0.438929  0.143128  1
  Zr  Zr47  1  0.609415  0.039627  0.116435  1
  Zr  Zr48  1  0.779487  0.820280  0.156390  1
  Zr  Zr49  1  0.885492  0.393952  0.962978  1
  Sc  Sc50  1  0.382852  0.828368  0.087449  1
  Sc  Sc51  1  0.822648  0.152624  0.773511  1
  Sc  Sc52  1  0.977392  0.800333  0.985401  1
  Sc  Sc53  1  0.984050  0.978007  0.800345  1
  Sc  Sc54  1  0.907975  0.554557  0.769073  1
  Sc  Sc55  1  0.859233  0.324915  0.563350  1
  Sc  Sc56  1  0.933708  0.723452  0.578400  1
  Sc  Sc57  1  0.959686  0.883891  0.394029  1
  Sc  Sc58  1  0.830127  0.087428  0.383177  1
  Sc  Sc59  1  0.903868  0.488152  0.383274  1
  Sc  Sc60  1  0.913306  0.617444  0.174400  1
  Sc  Sc61  1  0.847455  0.225676  0.181811  1
  O  O62  1  0.079065  0.895981  0.896323  1
  O  O63  1  0.088774  0.708590  0.935646  1
  O  O64  1  0.066244  0.820362  0.688727  1
  O  O65  1  0.043168  0.626227  0.722956  1
  O  O66  1  0.014051  0.599712  0.510229  1
  O  O67  1  0.056216  0.797918  0.482725  1
  O  O68  1  0.066015  0.912014  0.292521  1
  O  O69  1  0.016331  0.584803  0.305006  1
  O  O70  1  0.039905  0.718549  0.126863  1
  O  O71  1  0.001174  0.504027  0.099700  1
  O  O72  1  0.100531  0.923410  0.105102  1
  O  O73  1  0.106452  0.102522  0.923644  1
  O  O74  1  0.203538  0.516405  0.945282  1
  O  O75  1  0.128054  0.253463  0.727402  1
  O  O76  1  0.179801  0.310428  0.932185  1
  O  O77  1  0.281360  0.877383  0.963062  1
  O  O78  1  0.199032  0.458231  0.738507  1
  O  O79  1  0.273145  0.872176  0.746896  1
  O  O80  1  0.128523  0.039542  0.717633  1
  O  O81  1  0.261683  0.679185  0.787317  1
  O  O82  1  0.099998  0.002897  0.505644  1
  O  O83  1  0.216108  0.610683  0.565157  1
  O  O84  1  0.185456  0.405045  0.537531  1
  O  O85  1  0.153787  0.207400  0.532075  1
  O  O86  1  0.261367  0.801950  0.542997  1
  O  O87  1  0.214499  0.740597  0.322819  1
  O  O88  1  0.125507  0.133403  0.327378  1
  O  O89  1  0.205647  0.547970  0.357880  1
  O  O90  1  0.280673  0.959180  0.374103  1
  O  O91  1  0.167363  0.342632  0.330575  1
  O  O92  1  0.135051  0.329473  0.123478  1
  O  O93  1  0.122981  0.124497  0.123696  1
  O  O94  1  0.206052  0.532930  0.153020  1
  O  O95  1  0.253039  0.726288  0.128276  1
  O  O96  1  0.309054  0.932962  0.178824  1
  O  O97  1  0.292998  0.065421  0.910549  1
  O  O98  1  0.415397  0.693460  0.985400  1
  O  O99  1  0.399951  0.490226  0.986533  1
  O  O100  1  0.373132  0.279736  0.958445  1
  O  O101  1  0.322627  0.213729  0.739425  1
  O  O102  1  0.495659  0.900153  0.998078  1
  O  O103  1  0.389055  0.434726  0.784786  1
  O  O104  1  0.467563  0.846379  0.792972  1
  O  O105  1  0.451753  0.642032  0.794111  1
  O  O106  1  0.306155  0.013895  0.585617  1
  O  O107  1  0.413488  0.611166  0.588877  1
  O  O108  1  0.388970  0.411222  0.586653  1
  O  O109  1  0.462698  0.814550  0.595663  1
  O  O110  1  0.357322  0.204686  0.547105  1
  O  O111  1  0.434422  0.784675  0.389027  1
  O  O112  1  0.329647  0.166334  0.341682  1
  O  O113  1  0.411308  0.586649  0.388693  1
  O  O114  1  0.382394  0.382896  0.382873  1
  O  O115  1  0.490584  0.987188  0.401256  1
  O  O116  1  0.341787  0.328610  0.166096  1
  O  O117  1  0.402873  0.535662  0.184674  1
  O  O118  1  0.328047  0.123246  0.133080  1
  O  O119  1  0.457024  0.737764  0.198343  1
  O  O120  1  0.517957  0.947553  0.205459  1
  O  O121  1  0.483251  0.054886  0.796913  1
  O  O122  1  0.541802  0.261330  0.801757  1
  O  O123  1  0.670048  0.877959  0.867188  1
  O  O124  1  0.596483  0.464883  0.815808  1
  O  O125  1  0.655892  0.670890  0.832311  1
  O  O126  1  0.508788  0.013560  0.600333  1
  O  O127  1  0.616532  0.615878  0.616693  1
  O  O128  1  0.587848  0.412867  0.611617  1
  O  O129  1  0.668680  0.830389  0.657749  1
  O  O130  1  0.563618  0.215587  0.609503  1
  O  O131  1  0.641260  0.796469  0.453667  1
  O  O132  1  0.536654  0.185153  0.403368  1
  O  O133  1  0.611016  0.589402  0.414275  1
  O  O134  1  0.585294  0.389042  0.411060  1
  O  O135  1  0.693334  0.985904  0.413857  1
  O  O136  1  0.546219  0.359520  0.203516  1
  O  O137  1  0.531305  0.154283  0.206125  1
  O  O138  1  0.610241  0.565197  0.216757  1
  O  O139  1  0.504605  0.099660  0.002258  1
  O  O140  1  0.676022  0.786507  0.258955  1
  O  O141  1  0.626368  0.720581  0.041556  1
  O  O142  1  0.599358  0.509972  0.014493  1
  O  O143  1  0.584935  0.305443  0.014056  1
  O  O144  1  0.708360  0.934571  0.088961  1
  O  O145  1  0.689879  0.066319  0.820321  1
  O  O146  1  0.746333  0.274799  0.874059  1
  O  O147  1  0.795534  0.468146  0.846363  1
  O  O148  1  0.875526  0.877561  0.876989  1
  O  O149  1  0.862502  0.672259  0.875583  1
  O  O150  1  0.831572  0.654731  0.667814  1
  O  O151  1  0.716472  0.037281  0.626219  1
  O  O152  1  0.791463  0.447979  0.643812  1
  O  O153  1  0.874156  0.865689  0.673940  1
  O  O154  1  0.784178  0.257284  0.677406  1
  O  O155  1  0.739580  0.197912  0.457808  1
  O  O156  1  0.845275  0.793973  0.466257  1
  O  O157  1  0.815399  0.597007  0.463233  1
  O  O158  1  0.782183  0.391057  0.434728  1
  O  O159  1  0.899564  0.998499  0.495391  1
  O  O160  1  0.738609  0.321500  0.212691  1
  O  O161  1  0.877253  0.961554  0.278621  1
  O  O162  1  0.725786  0.128291  0.253069  1
  O  O163  1  0.802620  0.543432  0.261671  1
  O  O164  1  0.716647  0.122346  0.034397  1
  O  O165  1  0.820490  0.689285  0.068273  1
  O  O166  1  0.870407  0.747359  0.272522  1
  O  O167  1  0.794216  0.481012  0.051906  1
  O  O168  1  0.894716  0.898357  0.076435  1
  O  O169  1  0.897370  0.080578  0.896980  1
  O  O170  1  0.998680  0.495200  0.901772  1
  O  O171  1  0.965709  0.283020  0.877427  1
  O  O172  1  0.987195  0.413365  0.693360  1
  O  O173  1  0.935495  0.088036  0.708377  1
  O  O174  1  0.948587  0.205437  0.516351  1
  O  O175  1  0.985168  0.399839  0.489759  1
  O  O176  1  0.961106  0.371045  0.282576  1
  O  O177  1  0.934600  0.174749  0.308094  1
  O  O178  1  0.911978  0.291957  0.065191  1
  O  O179  1  0.921744  0.104810  0.101312  1
