# generated using pymatgen
data_Zr3Sc4O12
_symmetry_space_group_name_H-M   'P 1'
_cell_length_a   6.23209779
_cell_length_b   6.24987621
_cell_length_c   12.39775338
_cell_angle_alpha   99.37639718
_cell_angle_beta   99.43096805
_cell_angle_gamma   99.67259461
_symmetry_Int_Tables_number   1
_chemical_formula_structural   Zr3Sc4O12
_chemical_formula_sum   'Zr6 Sc8 O24'
_cell_volume   460.49797442
_cell_formula_units_Z   2
loop_
 _symmetry_equiv_pos_site_id
 _symmetry_equiv_pos_as_xyz
  1  'x, y, z'
loop_
 _atom_site_type_symbol
 _atom_site_label
 _atom_site_symmetry_multiplicity
 _atom_site_fract_x
 _atom_site_fract_y
 _atom_site_fract_z
 _atom_site_occupancy
  Zr  Zr0  1  0.141641  0.612598  0.156277  1
  Zr  Zr1  1  0.993556  0.996715  0.000960  1
  Zr  Zr2  1  0.315652  0.142747  0.806699  1
  Zr  Zr3  1  0.684348  0.857253  0.693301  1
  Zr  Zr4  1  0.006444  0.003285  0.499040  1
  Zr  Zr5  1  0.858359  0.387402  0.343723  1
  Sc  Sc6  1  0.137784  0.603610  0.656824  1
  Sc  Sc7  1  0.395060  0.678885  0.930739  1
  Sc  Sc8  1  0.391501  0.683070  0.429301  1
  Sc  Sc9  1  0.323207  0.141291  0.304827  1
  Sc  Sc10  1  0.604940  0.321115  0.569261  1
  Sc  Sc11  1  0.676793  0.858709  0.195173  1
  Sc  Sc12  1  0.862216  0.396390  0.843176  1
  Sc  Sc13  1  0.608499  0.316930  0.070699  1
  O  O14  1  0.063934  0.675558  0.959254  1
  O  O15  1  0.089077  0.938467  0.661649  1
  O  O16  1  0.058305  0.680768  0.449947  1
  O  O17  1  0.178571  0.418789  0.786846  1
  O  O18  1  0.097656  0.940951  0.162029  1
  O  O19  1  0.320038  0.097470  0.969558  1
  O  O20  1  0.177828  0.417983  0.286755  1
  O  O21  1  0.425877  0.822803  0.790350  1
  O  O22  1  0.420310  0.581198  0.590924  1
  O  O23  1  0.324248  0.098064  0.470998  1
  O  O24  1  0.418231  0.818844  0.288778  1
  O  O25  1  0.579690  0.418802  0.909076  1
  O  O26  1  0.420886  0.573341  0.089943  1
  O  O27  1  0.574123  0.177197  0.709650  1
  O  O28  1  0.679962  0.902530  0.530442  1
  O  O29  1  0.579114  0.426659  0.410057  1
  O  O30  1  0.581769  0.181156  0.211222  1
  O  O31  1  0.821429  0.581211  0.713154  1
  O  O32  1  0.675752  0.901936  0.029002  1
  O  O33  1  0.910923  0.061533  0.838351  1
  O  O34  1  0.822172  0.582017  0.213245  1
  O  O35  1  0.936066  0.324442  0.540746  1
  O  O36  1  0.902344  0.059049  0.337971  1
  O  O37  1  0.941695  0.319232  0.050053  1
