# generated using pymatgen
data_Zr4CdO9
_symmetry_space_group_name_H-M   'P 1'
_cell_length_a   3.50606180
_cell_length_b   7.04672870
_cell_length_c   19.80878506
_cell_angle_alpha   61.69459846
_cell_angle_beta   63.73725615
_cell_angle_gamma   60.16232076
_symmetry_Int_Tables_number   1
_chemical_formula_structural   Zr4CdO9
_chemical_formula_sum   'Zr8 Cd2 O18'
_cell_volume   359.83467845
_cell_formula_units_Z   2
loop_
 _symmetry_equiv_pos_site_id
 _symmetry_equiv_pos_as_xyz
  1  'x, y, z'
loop_
 _atom_site_type_symbol
 _atom_site_label
 _atom_site_symmetry_multiplicity
 _atom_site_fract_x
 _atom_site_fract_y
 _atom_site_fract_z
 _atom_site_occupancy
  Zr  Zr0  1  0.954398  0.987552  0.023220  1
  Zr  Zr1  1  0.006787  0.523042  0.988068  1
  Zr  Zr2  1  0.045602  0.012448  0.376780  1
  Zr  Zr3  1  0.993213  0.476958  0.411932  1
  Zr  Zr4  1  0.987386  0.975368  0.614898  1
  Zr  Zr5  1  0.012614  0.024632  0.785102  1
  Zr  Zr6  1  0.019461  0.523013  0.583010  1
  Zr  Zr7  1  0.980539  0.476987  0.816990  1
  Cd  Cd8  1  0.000000  0.000000  0.200000  1
  Cd  Cd9  1  0.000000  0.500000  0.200000  1
  O  O10  1  0.166417  0.177810  0.062309  1
  O  O11  1  0.298390  0.584362  0.046899  1
  O  O12  1  0.219749  0.152415  0.251135  1
  O  O13  1  0.336105  0.103836  0.424023  1
  O  O14  1  0.198288  0.655499  0.458485  1
  O  O15  1  0.187657  0.162060  0.660113  1
  O  O16  1  0.780251  0.847585  0.148865  1
  O  O17  1  0.701610  0.415638  0.353101  1
  O  O18  1  0.314425  0.097611  0.835186  1
  O  O19  1  0.819757  0.334525  0.538287  1
  O  O20  1  0.833583  0.822190  0.337691  1
  O  O21  1  0.320850  0.597658  0.632597  1
  O  O22  1  0.679150  0.402342  0.767403  1
  O  O23  1  0.685575  0.902389  0.564814  1
  O  O24  1  0.180243  0.665475  0.861713  1
  O  O25  1  0.812343  0.837940  0.739887  1
  O  O26  1  0.801712  0.344501  0.941515  1
  O  O27  1  0.663895  0.896164  0.975977  1
