# generated using pymatgen
data_Zr8Ni21
_symmetry_space_group_name_H-M   'P 1'
_cell_length_a   6.45119089
_cell_length_b   8.08198410
_cell_length_c   8.56679916
_cell_angle_alpha   75.35020571
_cell_angle_beta   68.02580832
_cell_angle_gamma   75.32519695
_symmetry_Int_Tables_number   1
_chemical_formula_structural   Zr8Ni21
_chemical_formula_sum   'Zr8 Ni21'
_cell_volume   394.42592365
_cell_formula_units_Z   1
loop_
 _symmetry_equiv_pos_site_id
 _symmetry_equiv_pos_as_xyz
  1  'x, y, z'
loop_
 _atom_site_type_symbol
 _atom_site_label
 _atom_site_symmetry_multiplicity
 _atom_site_fract_x
 _atom_site_fract_y
 _atom_site_fract_z
 _atom_site_occupancy
  Ni  Ni0  1  0.000000  0.000000  0.000000  1
  Ni  Ni1  1  0.098015  0.759424  0.847514  1
  Ni  Ni2  1  0.901985  0.240576  0.152486  1
  Ni  Ni3  1  0.286679  0.885357  0.529778  1
  Ni  Ni4  1  0.713321  0.114643  0.470222  1
  Ni  Ni5  1  0.515281  0.617308  0.755673  1
  Ni  Ni6  1  0.484719  0.382692  0.244327  1
  Ni  Ni7  1  0.515280  0.292195  0.725724  1
  Ni  Ni8  1  0.099236  0.279763  0.845840  1
  Ni  Ni9  1  0.900764  0.720237  0.154160  1
  Ni  Ni10  1  0.119134  0.555177  0.348546  1
  Ni  Ni11  1  0.880866  0.444823  0.651454  1
  Ni  Ni12  1  0.136246  0.212733  0.342414  1
  Ni  Ni13  1  0.863754  0.787267  0.657586  1
  Ni  Ni14  1  0.303391  0.245305  0.541422  1
  Ni  Ni15  1  0.696609  0.754695  0.458578  1
  Ni  Ni16  1  0.316429  0.098852  0.035756  1
  Ni  Ni17  1  0.683570  0.901148  0.964244  1
  Ni  Ni18  1  0.317571  0.743840  0.048037  1
  Ni  Ni19  1  0.682429  0.256160  0.951963  1
  Ni  Ni20  1  0.484720  0.707805  0.274276  1
  Zr  Zr21  1  0.433023  0.962348  0.752532  1
  Zr  Zr22  1  0.566977  0.037652  0.247468  1
  Zr  Zr23  1  0.752634  0.440290  0.392704  1
  Zr  Zr24  1  0.247366  0.559710  0.607296  1
  Zr  Zr25  1  0.751660  0.563456  0.966185  1
  Zr  Zr26  1  0.248340  0.436544  0.033815  1
  Zr  Zr27  1  0.930620  0.095562  0.685525  1
  Zr  Zr28  1  0.069380  0.904438  0.314475  1
