# generated using pymatgen
data_Zr9Ni11
_symmetry_space_group_name_H-M   'P 1'
_cell_length_a   6.47517021
_cell_length_b   7.77259743
_cell_length_c   7.77259744
_cell_angle_alpha   80.00837547
_cell_angle_beta   65.38376730
_cell_angle_gamma   65.38376734
_symmetry_Int_Tables_number   1
_chemical_formula_structural   Zr9Ni11
_chemical_formula_sum   'Zr9 Ni11'
_cell_volume   323.31375447
_cell_formula_units_Z   1
loop_
 _symmetry_equiv_pos_site_id
 _symmetry_equiv_pos_as_xyz
  1  'x, y, z'
loop_
 _atom_site_type_symbol
 _atom_site_label
 _atom_site_symmetry_multiplicity
 _atom_site_fract_x
 _atom_site_fract_y
 _atom_site_fract_z
 _atom_site_occupancy
  Ni  Ni0  1  0.500000  0.000000  0.000000  1
  Ni  Ni1  1  0.250000  0.500000  0.500000  1
  Ni  Ni2  1  0.750000  0.500000  0.500000  1
  Ni  Ni3  1  0.429429  0.895130  0.657359  1
  Ni  Ni4  1  0.086788  0.342641  0.895130  1
  Ni  Ni5  1  0.324559  0.657359  0.104870  1
  Ni  Ni6  1  0.981918  0.104870  0.342641  1
  Ni  Ni7  1  0.570571  0.104870  0.342641  1
  Ni  Ni8  1  0.913212  0.657359  0.104870  1
  Ni  Ni9  1  0.675441  0.342641  0.895130  1
  Ni  Ni10  1  0.018082  0.895130  0.657359  1
  Zr  Zr11  1  0.000000  0.000000  0.000000  1
  Zr  Zr12  1  0.415179  0.832380  0.337261  1
  Zr  Zr13  1  0.752441  0.662739  0.832380  1
  Zr  Zr14  1  0.247559  0.337261  0.167620  1
  Zr  Zr15  1  0.584821  0.167620  0.662739  1
  Zr  Zr16  1  0.090599  0.220725  0.598077  1
  Zr  Zr17  1  0.688676  0.401923  0.220725  1
  Zr  Zr18  1  0.311324  0.598077  0.779275  1
  Zr  Zr19  1  0.909401  0.779275  0.401923  1
