# generated using pymatgen
data_Zr9ScO20
_symmetry_space_group_name_H-M   'P 1'
_cell_length_a   18.16280174
_cell_length_b   8.13650324
_cell_length_c   6.38604340
_cell_angle_alpha   59.45341953
_cell_angle_beta   55.36327697
_cell_angle_gamma   26.57652361
_symmetry_Int_Tables_number   1
_chemical_formula_structural   Zr9ScO20
_chemical_formula_sum   'Zr9 Sc1 O20'
_cell_volume   347.39295521
_cell_formula_units_Z   1
loop_
 _symmetry_equiv_pos_site_id
 _symmetry_equiv_pos_as_xyz
  1  'x, y, z'
loop_
 _atom_site_type_symbol
 _atom_site_label
 _atom_site_symmetry_multiplicity
 _atom_site_fract_x
 _atom_site_fract_y
 _atom_site_fract_z
 _atom_site_occupancy
  Zr  Zr0  1  0.998653  0.000971  0.001149  1
  Zr  Zr1  1  0.201741  0.997630  0.998743  1
  Zr  Zr2  1  0.994926  0.511629  0.498616  1
  Zr  Zr3  1  0.402501  0.994818  0.000471  1
  Zr  Zr4  1  0.205610  0.488110  0.498710  1
  Zr  Zr5  1  0.599330  0.001100  0.000914  1
  Zr  Zr6  1  0.400259  0.503437  0.502197  1
  Zr  Zr7  1  0.797705  0.005347  0.000272  1
  Zr  Zr8  1  0.799306  0.497073  0.498550  1
  Sc  Sc9  1  0.599647  0.500708  0.500550  1
  O  O10  1  0.043606  0.995375  0.292749  1
  O  O11  1  0.239497  0.003282  0.293446  1
  O  O12  1  0.059750  0.498104  0.705181  1
  O  O13  1  0.158658  0.499602  0.206693  1
  O  O14  1  0.443658  0.997472  0.287594  1
  O  O15  1  0.358542  0.499839  0.209538  1
  O  O16  1  0.258061  0.502245  0.707866  1
  O  O17  1  0.640603  0.001483  0.293570  1
  O  O18  1  0.140844  0.001132  0.793422  1
  O  O19  1  0.555429  0.500691  0.210661  1
  O  O20  1  0.457283  0.501251  0.713708  1
  O  O21  1  0.338087  0.009442  0.792529  1
  O  O22  1  0.841306  0.002758  0.288054  1
  O  O23  1  0.761217  0.499281  0.206869  1
  O  O24  1  0.657391  0.499786  0.712862  1
  O  O25  1  0.541876  0.000473  0.790190  1
  O  O26  1  0.958066  0.500985  0.205695  1
  O  O27  1  0.858730  0.497810  0.706272  1
  O  O28  1  0.745849  0.988859  0.792271  1
  O  O29  1  0.941865  0.999306  0.790655  1
