# generated using pymatgen
data_Zr9VO20
_symmetry_space_group_name_H-M   'P 1'
_cell_length_a   8.11095450
_cell_length_b   7.35919013
_cell_length_c   6.47492953
_cell_angle_alpha   71.40747659
_cell_angle_beta   75.49552291
_cell_angle_gamma   77.07398471
_symmetry_Int_Tables_number   1
_chemical_formula_structural   Zr9VO20
_chemical_formula_sum   'Zr9 V1 O20'
_cell_volume   350.25854142
_cell_formula_units_Z   1
loop_
 _symmetry_equiv_pos_site_id
 _symmetry_equiv_pos_as_xyz
  1  'x, y, z'
loop_
 _atom_site_type_symbol
 _atom_site_label
 _atom_site_symmetry_multiplicity
 _atom_site_fract_x
 _atom_site_fract_y
 _atom_site_fract_z
 _atom_site_occupancy
  Zr  Zr0  1  0.594228  0.049318  0.696844  1
  Zr  Zr1  1  0.603105  0.550545  0.690888  1
  Zr  Zr2  1  0.195717  0.346607  0.902177  1
  Zr  Zr3  1  0.797845  0.154817  0.103480  1
  Zr  Zr4  1  0.000262  0.243321  0.507932  1
  Zr  Zr5  1  0.805896  0.649686  0.095590  1
  Zr  Zr6  1  0.395911  0.461239  0.288846  1
  Zr  Zr7  1  0.003772  0.743868  0.508505  1
  Zr  Zr8  1  0.405367  0.948282  0.301399  1
  V  V9  1  0.195383  0.856092  0.905972  1
  O  O10  1  0.348675  0.011880  0.917106  1
  O  O11  1  0.757999  0.230734  0.709856  1
  O  O12  1  0.868465  0.023427  0.414967  1
  O  O13  1  0.738691  0.772656  0.784390  1
  O  O14  1  0.841708  0.578586  0.472151  1
  O  O15  1  0.437520  0.363965  0.700629  1
  O  O16  1  0.933090  0.366065  0.190910  1
  O  O17  1  0.326612  0.599653  0.973740  1
  O  O18  1  0.028904  0.185217  0.874638  1
  O  O19  1  0.542705  0.181306  0.379114  1
  O  O20  1  0.481207  0.834637  0.600887  1
  O  O21  1  0.262631  0.225995  0.214845  1
  O  O22  1  0.163300  0.425046  0.513851  1
  O  O23  1  0.977303  0.833573  0.096456  1
  O  O24  1  0.565472  0.620873  0.319442  1
  O  O25  1  0.046314  0.614540  0.825855  1
  O  O26  1  0.653685  0.430978  0.012300  1
  O  O27  1  0.244116  0.765294  0.303699  1
  O  O28  1  0.640836  0.971187  0.081773  1
  O  O29  1  0.143277  0.960611  0.611758  1
