# generated using pymatgen
data_Cu2Ag2O3
_symmetry_space_group_name_H-M   'P 1'
_cell_length_a   5.99439362
_cell_length_b   5.99439362
_cell_length_c   6.84254187
_cell_angle_alpha   115.97786539
_cell_angle_beta   115.97786545
_cell_angle_gamma   89.99999996
_symmetry_Int_Tables_number   1
_chemical_formula_structural   Cu2Ag2O3
_chemical_formula_sum   'Cu4 Ag4 O6'
_cell_volume   193.01610241
_cell_formula_units_Z   2
loop_
 _symmetry_equiv_pos_site_id
 _symmetry_equiv_pos_as_xyz
  1  'x, y, z'
loop_
 _atom_site_type_symbol
 _atom_site_label
 _atom_site_symmetry_multiplicity
 _atom_site_fract_x
 _atom_site_fract_y
 _atom_site_fract_z
 _atom_site_occupancy
  O  O0  1  0.625000  0.375000  0.250000  1
  O  O1  1  0.375000  0.625000  0.750000  1
  O  O2  1  0.611633  0.861633  0.223266  1
  O  O3  1  0.861633  0.611633  0.723266  1
  O  O4  1  0.138367  0.388367  0.276734  1
  O  O5  1  0.388367  0.138367  0.776734  1
  Cu  Cu6  1  0.500000  0.500000  0.500000  1
  Cu  Cu7  1  0.500000  0.000000  0.000000  1
  Cu  Cu8  1  0.500000  0.500000  0.000000  1
  Cu  Cu9  1  0.000000  0.500000  0.500000  1
  Ag  Ag10  1  0.000000  0.500000  0.000000  1
  Ag  Ag11  1  0.000000  0.000000  0.500000  1
  Ag  Ag12  1  0.500000  0.000000  0.500000  1
  Ag  Ag13  1  0.000000  0.000000  0.000000  1
