# generated using pymatgen
data_Cu2NiO4
_symmetry_space_group_name_H-M   'P 1'
_cell_length_a   6.20401647
_cell_length_b   6.20470643
_cell_length_c   6.20401647
_cell_angle_alpha   129.19868903
_cell_angle_beta   74.69219335
_cell_angle_gamma   129.18691766
_symmetry_Int_Tables_number   1
_chemical_formula_structural   Cu2NiO4
_chemical_formula_sum   'Cu4 Ni2 O8'
_cell_volume   139.76052223
_cell_formula_units_Z   2
loop_
 _symmetry_equiv_pos_site_id
 _symmetry_equiv_pos_as_xyz
  1  'x, y, z'
loop_
 _atom_site_type_symbol
 _atom_site_label
 _atom_site_symmetry_multiplicity
 _atom_site_fract_x
 _atom_site_fract_y
 _atom_site_fract_z
 _atom_site_occupancy
  Cu  Cu0  1  0.500000  0.000000  0.000000  1
  Cu  Cu1  1  0.500000  0.500000  0.000000  1
  Cu  Cu2  1  0.500000  0.000000  0.500000  1
  Cu  Cu3  1  0.000000  0.500000  0.000000  1
  Ni  Ni4  1  0.874401  0.750000  0.624401  1
  Ni  Ni5  1  0.125599  0.250000  0.375599  1
  O  O6  1  0.842536  0.732260  0.205576  1
  O  O7  1  0.526684  0.232260  0.389723  1
  O  O8  1  0.705503  0.862829  0.973161  1
  O  O9  1  0.889668  0.362829  0.657326  1
  O  O10  1  0.110332  0.637171  0.342674  1
  O  O11  1  0.294497  0.137171  0.026839  1
  O  O12  1  0.473316  0.767740  0.610277  1
  O  O13  1  0.157464  0.267740  0.794424  1
