# generated using pymatgen
data_CuMoO4
_symmetry_space_group_name_H-M   'P 1'
_cell_length_a   8.34805249
_cell_length_b   8.84748402
_cell_length_c   9.56229518
_cell_angle_alpha   90.00000000
_cell_angle_beta   90.00000000
_cell_angle_gamma   106.50515306
_symmetry_Int_Tables_number   1
_chemical_formula_structural   CuMoO4
_chemical_formula_sum   'Cu8 Mo8 O32'
_cell_volume   677.16187121
_cell_formula_units_Z   8
loop_
 _symmetry_equiv_pos_site_id
 _symmetry_equiv_pos_as_xyz
  1  'x, y, z'
loop_
 _atom_site_type_symbol
 _atom_site_label
 _atom_site_symmetry_multiplicity
 _atom_site_fract_x
 _atom_site_fract_y
 _atom_site_fract_z
 _atom_site_occupancy
  Cu  Cu0  1  0.677617  0.263001  0.992607  1
  Cu  Cu1  1  0.162069  0.178589  0.501724  1
  Cu  Cu2  1  0.822383  0.236999  0.492607  1
  Cu  Cu3  1  0.322383  0.736999  0.007393  1
  Cu  Cu4  1  0.177617  0.763001  0.507393  1
  Cu  Cu5  1  0.662069  0.678589  0.998276  1
  Cu  Cu6  1  0.837931  0.821411  0.498276  1
  Cu  Cu7  1  0.337931  0.321411  0.001724  1
  Mo  Mo8  1  0.546279  0.907933  0.728525  1
  Mo  Mo9  1  0.046279  0.407933  0.771475  1
  Mo  Mo10  1  0.953721  0.592067  0.228525  1
  Mo  Mo11  1  0.537479  0.380016  0.689460  1
  Mo  Mo12  1  0.453721  0.092067  0.271475  1
  Mo  Mo13  1  0.962521  0.119984  0.189460  1
  Mo  Mo14  1  0.037479  0.880016  0.810540  1
  Mo  Mo15  1  0.462521  0.619984  0.310540  1
  O  O16  1  0.147323  0.257277  0.119849  1
  O  O17  1  0.352677  0.242723  0.619849  1
  O  O18  1  0.878528  0.351691  0.892984  1
  O  O19  1  0.852677  0.742723  0.880151  1
  O  O20  1  0.935365  0.398212  0.282770  1
  O  O21  1  0.548435  0.383707  0.890182  1
  O  O22  1  0.974777  0.715214  0.392481  1
  O  O23  1  0.951565  0.116293  0.390182  1
  O  O24  1  0.730244  0.367574  0.609063  1
  O  O25  1  0.451565  0.616293  0.109818  1
  O  O26  1  0.025223  0.284786  0.607519  1
  O  O27  1  0.647323  0.757277  0.380151  1
  O  O28  1  0.121472  0.648309  0.107016  1
  O  O29  1  0.028380  0.068635  0.851225  1
  O  O30  1  0.435365  0.898212  0.217230  1
  O  O31  1  0.760508  0.579493  0.139438  1
  O  O32  1  0.739492  0.920507  0.639438  1
  O  O33  1  0.971620  0.931365  0.148775  1
  O  O34  1  0.239492  0.420507  0.860562  1
  O  O35  1  0.378528  0.851691  0.607016  1
  O  O36  1  0.064635  0.601788  0.717230  1
  O  O37  1  0.474777  0.215214  0.107519  1
  O  O38  1  0.471620  0.431365  0.351225  1
  O  O39  1  0.230244  0.867574  0.890937  1
  O  O40  1  0.269756  0.632426  0.390937  1
  O  O41  1  0.621472  0.148309  0.392984  1
  O  O42  1  0.528380  0.568635  0.648775  1
  O  O43  1  0.564635  0.101788  0.782770  1
  O  O44  1  0.260508  0.079493  0.360562  1
  O  O45  1  0.048435  0.883707  0.609818  1
  O  O46  1  0.525223  0.784786  0.892481  1
  O  O47  1  0.769756  0.132426  0.109063  1
