# generated using pymatgen
data_Cu4PtO5
_symmetry_space_group_name_H-M   'P 1'
_cell_length_a   2.91117001
_cell_length_b   13.23431366
_cell_length_c   6.03678419
_cell_angle_alpha   97.01204968
_cell_angle_beta   90.00000000
_cell_angle_gamma   90.00000000
_symmetry_Int_Tables_number   1
_chemical_formula_structural   Cu4PtO5
_chemical_formula_sum   'Cu8 Pt2 O10'
_cell_volume   230.84162785
_cell_formula_units_Z   2
loop_
 _symmetry_equiv_pos_site_id
 _symmetry_equiv_pos_as_xyz
  1  'x, y, z'
loop_
 _atom_site_type_symbol
 _atom_site_label
 _atom_site_symmetry_multiplicity
 _atom_site_fract_x
 _atom_site_fract_y
 _atom_site_fract_z
 _atom_site_occupancy
  Cu  Cu0  1  0.500000  0.098710  0.399479  1
  Cu  Cu1  1  0.500000  0.701593  0.801926  1
  Cu  Cu2  1  0.500000  0.501290  0.000521  1
  Cu  Cu3  1  0.500000  0.898407  0.598074  1
  Cu  Cu4  1  0.500000  0.300000  0.200000  1
  Cu  Cu5  1  0.000000  0.300000  0.700000  1
  Cu  Cu6  1  0.000000  0.703766  0.297641  1
  Cu  Cu7  1  0.000000  0.896234  0.102359  1
  Pt  Pt8  1  0.000000  0.098607  0.899938  1
  Pt  Pt9  1  0.000000  0.501393  0.500062  1
  O  O10  1  0.000000  0.151752  0.595281  1
  O  O11  1  0.000000  0.448248  0.804719  1
  O  O12  1  0.000000  0.045326  0.203751  1
  O  O13  1  0.000000  0.347662  0.400047  1
  O  O14  1  0.000000  0.654841  0.598302  1
  O  O15  1  0.000000  0.945159  0.801698  1
  O  O16  1  0.000000  0.252338  -0.000047  1
  O  O17  1  0.000000  0.554674  0.196249  1
  O  O18  1  0.000000  0.850576  0.401192  1
  O  O19  1  0.000000  0.749424  0.998808  1
