# generated using pymatgen
data_Dy2TiO5
_symmetry_space_group_name_H-M   'P 1'
_cell_length_a   7.15901451
_cell_length_b   7.31393672
_cell_length_c   14.67516035
_cell_angle_alpha   60.53659631
_cell_angle_beta   60.02080352
_cell_angle_gamma   60.41088741
_symmetry_Int_Tables_number   1
_chemical_formula_structural   Dy2TiO5
_chemical_formula_sum   'Dy10 Ti5 O25'
_cell_volume   547.28484938
_cell_formula_units_Z   5
loop_
 _symmetry_equiv_pos_site_id
 _symmetry_equiv_pos_as_xyz
  1  'x, y, z'
loop_
 _atom_site_type_symbol
 _atom_site_label
 _atom_site_symmetry_multiplicity
 _atom_site_fract_x
 _atom_site_fract_y
 _atom_site_fract_z
 _atom_site_occupancy
  Dy  Dy0  1  0.984939  0.046372  0.979705  1
  Dy  Dy1  1  0.988210  0.493198  0.992229  1
  Dy  Dy2  1  0.007881  0.018248  0.236522  1
  Dy  Dy3  1  0.499747  0.006268  0.990470  1
  Dy  Dy4  1  0.945426  0.994913  0.527053  1
  Dy  Dy5  1  0.982660  0.492098  0.521930  1
  Dy  Dy6  1  0.020729  0.971602  0.750847  1
  Dy  Dy7  1  0.494456  0.015501  0.481656  1
  Dy  Dy8  1  0.579356  0.513791  0.249937  1
  Dy  Dy9  1  0.482362  0.496792  0.013410  1
  Ti  Ti10  1  0.574484  0.968984  0.241510  1
  Ti  Ti11  1  0.003687  0.509227  0.738856  1
  Ti  Ti12  1  0.531579  0.487961  0.498874  1
  Ti  Ti13  1  0.484304  0.009835  0.758103  1
  Ti  Ti14  1  0.484936  0.510553  0.755840  1
  O  O15  1  0.128034  0.119059  0.053213  1
  O  O16  1  0.597609  0.133948  0.084462  1
  O  O17  1  0.119737  0.113284  0.567754  1
  O  O18  1  0.583009  0.171481  0.285029  1
  O  O19  1  0.586744  0.626461  0.080510  1
  O  O20  1  0.390104  0.402783  0.431410  1
  O  O21  1  0.366916  0.874176  0.228718  1
  O  O22  1  0.155735  0.596227  0.586694  1
  O  O23  1  0.159950  0.182789  0.781239  1
  O  O24  1  0.566939  0.161521  0.592163  1
  O  O25  1  0.942632  0.375907  0.177786  1
  O  O26  1  0.165486  0.585771  0.781730  1
  O  O27  1  0.460926  0.809738  0.403372  1
  O  O28  1  0.577523  0.165225  0.792715  1
  O  O29  1  0.842128  0.385144  0.431716  1
  O  O30  1  0.873790  0.825423  0.199781  1
  O  O31  1  0.566764  0.575267  0.590569  1
  O  O32  1  0.413561  0.815402  0.723404  1
  O  O33  1  0.385468  0.420243  0.917769  1
  O  O34  1  0.816372  0.432060  0.709749  1
  O  O35  1  0.878956  0.872815  0.434065  1
  O  O36  1  0.377254  0.854145  0.917563  1
  O  O37  1  0.835836  0.417667  0.915143  1
  O  O38  1  0.814538  0.828271  0.716662  1
  O  O39  1  0.891235  0.865849  0.932840  1
