# generated using pymatgen
data_Dy2TiO5
_symmetry_space_group_name_H-M   'P 1'
_cell_length_a   7.62471643
_cell_length_b   7.48686153
_cell_length_c   14.67861480
_cell_angle_alpha   58.19493383
_cell_angle_beta   58.90765653
_cell_angle_gamma   58.41677558
_symmetry_Int_Tables_number   1
_chemical_formula_structural   Dy2TiO5
_chemical_formula_sum   'Dy10 Ti5 O25'
_cell_volume   572.21550294
_cell_formula_units_Z   5
loop_
 _symmetry_equiv_pos_site_id
 _symmetry_equiv_pos_as_xyz
  1  'x, y, z'
loop_
 _atom_site_type_symbol
 _atom_site_label
 _atom_site_symmetry_multiplicity
 _atom_site_fract_x
 _atom_site_fract_y
 _atom_site_fract_z
 _atom_site_occupancy
  Dy  Dy0  1  0.130410  0.178860  0.051431  1
  Dy  Dy1  1  0.124930  0.101014  0.342877  1
  Dy  Dy2  1  0.104738  0.700530  0.057941  1
  Dy  Dy3  1  0.110925  0.592588  0.331173  1
  Dy  Dy4  1  0.588116  0.650421  0.067419  1
  Dy  Dy5  1  0.614087  0.136166  0.304666  1
  Dy  Dy6  1  0.639330  0.604128  0.304419  1
  Dy  Dy7  1  0.551711  0.641485  0.566664  1
  Dy  Dy8  1  0.599217  0.122959  0.806291  1
  Dy  Dy9  1  0.610133  0.662856  0.795182  1
  Ti  Ti10  1  0.143238  0.126834  0.550509  1
  Ti  Ti11  1  0.608045  0.136676  0.058820  1
  Ti  Ti12  1  0.152366  0.131494  0.819935  1
  Ti  Ti13  1  0.102697  0.618176  0.560401  1
  Ti  Ti14  1  0.631874  0.136224  0.561316  1
  O  O15  1  0.019956  0.460667  0.241979  1
  O  O16  1  0.490475  0.075823  0.000086  1
  O  O17  1  0.449240  0.439565  0.024175  1
  O  O18  1  0.480545  0.024531  0.222861  1
  O  O19  1  0.190510  0.829151  0.130137  1
  O  O20  1  0.253879  0.216153  0.393076  1
  O  O21  1  0.030625  0.431503  0.529205  1
  O  O22  1  0.783547  0.267945  0.122935  1
  O  O23  1  0.472697  0.505315  0.259785  1
  O  O24  1  0.049036  0.395227  0.712056  1
  O  O25  1  0.182927  0.753920  0.393837  1
  O  O26  1  0.400996  0.006281  0.573998  1
  O  O27  1  0.458265  0.448247  0.522602  1
  O  O28  1  0.471467  0.060303  0.721418  1
  O  O29  1  0.194746  0.830447  0.556430  1
  O  O30  1  0.236273  0.216485  0.884165  1
  O  O31  1  0.760259  0.182865  0.394284  1
  O  O32  1  0.772265  0.733224  0.107250  1
  O  O33  1  0.819139  0.178658  0.589601  1
  O  O34  1  0.570604  0.471297  0.736213  1
  O  O35  1  0.240348  0.814962  0.868502  1
  O  O36  1  0.735924  0.754810  0.379054  1
  O  O37  1  0.882913  0.121544  0.947247  1
  O  O38  1  0.810528  0.801936  0.599471  1
  O  O39  1  0.707418  0.753930  0.881189  1
