# generated using pymatgen
data_Dy10Ti6O27
_symmetry_space_group_name_H-M   'P 1'
_cell_length_a   7.42739029
_cell_length_b   7.27834002
_cell_length_c   14.51055503
_cell_angle_alpha   59.89479510
_cell_angle_beta   59.17228537
_cell_angle_gamma   60.66164409
_symmetry_Int_Tables_number   1
_chemical_formula_structural   Dy10Ti6O27
_chemical_formula_sum   'Dy10 Ti6 O27'
_cell_volume   553.34824775
_cell_formula_units_Z   1
loop_
 _symmetry_equiv_pos_site_id
 _symmetry_equiv_pos_as_xyz
  1  'x, y, z'
loop_
 _atom_site_type_symbol
 _atom_site_label
 _atom_site_symmetry_multiplicity
 _atom_site_fract_x
 _atom_site_fract_y
 _atom_site_fract_z
 _atom_site_occupancy
  Dy  Dy0  1  0.539896  0.983772  0.996281  1
  Dy  Dy1  1  0.463182  0.527816  0.990593  1
  Dy  Dy2  1  0.015049  0.967539  0.274937  1
  Dy  Dy3  1  0.507889  0.497141  0.253170  1
  Dy  Dy4  1  0.507889  0.988630  0.253170  1
  Dy  Dy5  1  0.532582  0.480581  0.503128  1
  Dy  Dy6  1  0.991457  0.520295  0.233977  1
  Dy  Dy7  1  0.550953  0.489570  0.731354  1
  Dy  Dy8  1  0.550953  0.996769  0.731354  1
  Dy  Dy9  1  0.999212  0.482648  0.767746  1
  O  O10  1  0.134276  0.156273  0.317217  1
  O  O11  1  0.078374  0.669511  0.041302  1
  O  O12  1  0.610561  0.158547  0.064867  1
  O  O13  1  0.134276  0.575017  0.317217  1
  O  O14  1  0.976442  0.080203  0.863304  1
  O  O15  1  0.372950  0.876803  0.186722  1
  O  O16  1  0.323001  0.343626  0.476781  1
  O  O17  1  0.035349  0.775434  0.456892  1
  O  O18  1  0.618592  0.098868  0.341835  1
  O  O19  1  0.610561  0.601158  0.064867  1
  O  O20  1  0.921409  0.337291  0.164051  1
  O  O21  1  0.363670  0.378454  0.689712  1
  O  O22  1  0.663063  0.082202  0.537673  1
  O  O23  1  0.640335  0.614718  0.315114  1
  O  O24  1  0.323001  0.879812  0.476781  1
  O  O25  1  0.976442  0.716748  0.863304  1
  O  O26  1  0.325149  0.358940  0.942627  1
  O  O27  1  0.311938  0.919836  0.674196  1
  O  O28  1  0.673847  0.117426  0.795650  1
  O  O29  1  0.921409  0.913198  0.164051  1
  O  O30  1  0.893734  0.304096  0.499037  1
  O  O31  1  0.663063  0.679387  0.537673  1
  O  O32  1  0.939438  0.374014  0.660198  1
  O  O33  1  0.628811  0.624737  0.810857  1
  O  O34  1  0.325149  0.930658  0.942627  1
  O  O35  1  0.974756  0.310659  0.951964  1
  O  O36  1  0.939438  0.866153  0.660198  1
  Ti  Ti37  1  0.016663  0.000468  0.004320  1
  Ti  Ti38  1  0.016663  0.474228  0.004320  1
  Ti  Ti39  1  0.995677  0.995295  0.756867  1
  Ti  Ti40  1  0.503055  0.992188  0.506284  1
  Ti  Ti41  1  0.027424  0.486248  0.494142  1
  Ti  Ti42  1  0.027424  0.998045  0.494142  1
