# generated using pymatgen
data_Dy3Fe5O12
_symmetry_space_group_name_H-M   'P 1'
_cell_length_a   10.85762507
_cell_length_b   10.85762508
_cell_length_c   10.85762508
_cell_angle_alpha   109.47122064
_cell_angle_beta   109.47122064
_cell_angle_gamma   109.47122065
_symmetry_Int_Tables_number   1
_chemical_formula_structural   Dy3Fe5O12
_chemical_formula_sum   'Dy12 Fe20 O48'
_cell_volume   985.33210182
_cell_formula_units_Z   4
loop_
 _symmetry_equiv_pos_site_id
 _symmetry_equiv_pos_as_xyz
  1  'x, y, z'
loop_
 _atom_site_type_symbol
 _atom_site_label
 _atom_site_symmetry_multiplicity
 _atom_site_fract_x
 _atom_site_fract_y
 _atom_site_fract_z
 _atom_site_occupancy
  O  O0  1  0.791124  0.416336  0.822933  1
  O  O1  1  0.083664  0.874789  0.406598  1
  O  O2  1  0.677067  0.093402  0.968191  1
  O  O3  1  0.708876  0.531809  0.625211  1
  O  O4  1  0.708876  0.677067  0.083664  1
  O  O5  1  0.531809  0.625211  0.708876  1
  O  O6  1  0.093402  0.625211  0.416336  1
  O  O7  1  0.625211  0.708876  0.531809  1
  O  O8  1  0.406598  0.822933  0.531809  1
  O  O9  1  0.874789  0.968191  0.791124  1
  O  O10  1  0.968191  0.791124  0.874789  1
  O  O11  1  0.083664  0.708876  0.677067  1
  O  O12  1  0.625211  0.416336  0.093402  1
  O  O13  1  0.531809  0.406598  0.822933  1
  O  O14  1  0.677067  0.083664  0.708876  1
  O  O15  1  0.416336  0.093402  0.625211  1
  O  O16  1  0.822933  0.531809  0.406598  1
  O  O17  1  0.406598  0.083664  0.874789  1
  O  O18  1  0.093402  0.968191  0.677067  1
  O  O19  1  0.593402  0.177066  0.468191  1
  O  O20  1  0.968191  0.677067  0.093402  1
  O  O21  1  0.822933  0.791124  0.416336  1
  O  O22  1  0.874789  0.406598  0.083664  1
  O  O23  1  0.791124  0.874789  0.968191  1
  O  O24  1  0.208876  0.583664  0.177066  1
  O  O25  1  0.916336  0.125211  0.593402  1
  O  O26  1  0.322933  0.906598  0.031809  1
  O  O27  1  0.291124  0.468191  0.374789  1
  O  O28  1  0.291124  0.322933  0.916336  1
  O  O29  1  0.468191  0.374789  0.291124  1
  O  O30  1  0.906598  0.374789  0.583664  1
  O  O31  1  0.374789  0.291124  0.468191  1
  O  O32  1  0.208876  0.125211  0.031809  1
  O  O33  1  0.125211  0.593402  0.916336  1
  O  O34  1  0.177066  0.208876  0.583664  1
  O  O35  1  0.583664  0.177066  0.208876  1
  O  O36  1  0.031809  0.322933  0.906598  1
  O  O37  1  0.906598  0.031809  0.322933  1
  O  O38  1  0.593402  0.916336  0.125211  1
  O  O39  1  0.177066  0.468191  0.593402  1
  O  O40  1  0.583664  0.906598  0.374789  1
  O  O41  1  0.322933  0.916336  0.291124  1
  O  O42  1  0.468191  0.593402  0.177066  1
  O  O43  1  0.374789  0.583664  0.906598  1
  O  O44  1  0.916336  0.291124  0.322933  1
  O  O45  1  0.031809  0.208876  0.125211  1
  O  O46  1  0.125211  0.031809  0.208876  1
  O  O47  1  0.416336  0.822933  0.791124  1
  Fe  Fe48  1  0.000000  0.000000  0.000000  1
  Fe  Fe49  1  0.000000  0.500000  0.000000  1
  Fe  Fe50  1  0.000000  0.000000  0.500000  1
  Fe  Fe51  1  0.500000  0.000000  0.000000  1
  Fe  Fe52  1  0.000000  0.500000  0.500000  1
  Fe  Fe53  1  0.500000  0.000000  0.500000  1
  Fe  Fe54  1  0.500000  0.500000  0.000000  1
  Fe  Fe55  1  0.500000  0.500000  0.500000  1
  Fe  Fe56  1  0.250000  0.625000  0.375000  1
  Fe  Fe57  1  0.625000  0.750000  0.375000  1
  Fe  Fe58  1  0.875000  0.250000  0.125000  1
  Fe  Fe59  1  0.125000  0.875000  0.250000  1
  Fe  Fe60  1  0.250000  0.125000  0.875000  1
  Fe  Fe61  1  0.750000  0.875000  0.125000  1
  Fe  Fe62  1  0.375000  0.250000  0.625000  1
  Fe  Fe63  1  0.625000  0.375000  0.250000  1
  Fe  Fe64  1  0.125000  0.750000  0.875000  1
  Fe  Fe65  1  0.875000  0.125000  0.750000  1
  Fe  Fe66  1  0.750000  0.375000  0.625000  1
  Fe  Fe67  1  0.375000  0.625000  0.750000  1
  Dy  Dy68  1  0.250000  0.375000  0.125000  1
  Dy  Dy69  1  0.375000  0.750000  0.125000  1
  Dy  Dy70  1  0.125000  0.250000  0.375000  1
  Dy  Dy71  1  0.375000  0.125000  0.250000  1
  Dy  Dy72  1  0.125000  0.375000  0.750000  1
  Dy  Dy73  1  0.750000  0.125000  0.375000  1
  Dy  Dy74  1  0.750000  0.625000  0.875000  1
  Dy  Dy75  1  0.625000  0.250000  0.875000  1
  Dy  Dy76  1  0.875000  0.750000  0.625000  1
  Dy  Dy77  1  0.625000  0.875000  0.750000  1
  Dy  Dy78  1  0.875000  0.625000  0.250000  1
  Dy  Dy79  1  0.250000  0.875000  0.625000  1
