# generated using pymatgen
data_Dy2Ti2O7
_symmetry_space_group_name_H-M   'P 1'
_cell_length_a   7.30162065
_cell_length_b   7.19002281
_cell_length_c   21.61919511
_cell_angle_alpha   60.29021101
_cell_angle_beta   60.21974934
_cell_angle_gamma   61.56198719
_symmetry_Int_Tables_number   1
_chemical_formula_structural   Dy2Ti2O7
_chemical_formula_sum   'Dy12 Ti12 O42'
_cell_volume   814.78468585
_cell_formula_units_Z   6
loop_
 _symmetry_equiv_pos_site_id
 _symmetry_equiv_pos_as_xyz
  1  'x, y, z'
loop_
 _atom_site_type_symbol
 _atom_site_label
 _atom_site_symmetry_multiplicity
 _atom_site_fract_x
 _atom_site_fract_y
 _atom_site_fract_z
 _atom_site_occupancy
  Dy  Dy0  1  0.010222  -0.030807  0.014927  1
  Dy  Dy1  1  0.517787  0.458792  0.002459  1
  Dy  Dy2  1  0.500000  0.500000  0.166667  1
  Dy  Dy3  1  0.482213  0.541208  0.330874  1
  Dy  Dy4  1  0.517575  0.499040  0.501682  1
  Dy  Dy5  1  0.481178  0.021417  0.502423  1
  Dy  Dy6  1  0.000000  0.000000  0.166667  1
  Dy  Dy7  1  0.500000  0.500000  0.666667  1
  Dy  Dy8  1  -0.010222  0.030807  0.318406  1
  Dy  Dy9  1  0.482425  0.500960  0.831651  1
  Dy  Dy10  1  0.518822  0.978583  0.830910  1
  Dy  Dy11  1  0.000000  0.000000  0.666667  1
  Ti  Ti12  1  0.992576  0.494964  0.997025  1
  Ti  Ti13  1  0.576904  0.015287  0.972100  1
  Ti  Ti14  1  0.000000  0.500000  0.166667  1
  Ti  Ti15  1  0.004261  0.476576  0.496185  1
  Ti  Ti16  1  0.500000  0.000000  0.166667  1
  Ti  Ti17  1  0.000000  0.500000  0.666667  1
  Ti  Ti18  1  0.423096  -0.015287  0.361233  1
  Ti  Ti19  1  0.007424  0.505036  0.336308  1
  Ti  Ti20  1  0.001697  0.970776  0.830448  1
  Ti  Ti21  1  0.500000  0.000000  0.666667  1
  Ti  Ti22  1  -0.001697  0.029224  0.502885  1
  Ti  Ti23  1  0.995739  0.523424  0.837148  1
  O  O24  1  0.058739  0.200392  0.046105  1
  O  O25  1  0.287468  0.292747  0.143676  1
  O  O26  1  0.058550  0.590507  0.048793  1
  O  O27  1  0.080210  0.036529  0.404856  1
  O  O28  1  0.627899  0.048567  0.051124  1
  O  O29  1  0.154115  0.714270  0.124909  1
  O  O30  1  0.679796  0.619693  0.035238  1
  O  O31  1  0.672452  0.161782  0.149927  1
  O  O32  1  0.096223  0.152293  0.537621  1
  O  O33  1  0.320204  0.380307  0.298095  1
  O  O34  1  0.327548  0.838218  0.183407  1
  O  O35  1  0.096735  0.657735  0.393027  1
  O  O36  1  0.845885  0.285730  0.208425  1
  O  O37  1  0.609261  0.112629  0.373910  1
  O  O38  1  0.372101  0.951433  0.282209  1
  O  O39  1  0.347542  0.395988  0.469119  1
  O  O40  1  0.972928  0.218759  0.741524  1
  O  O41  1  0.680673  0.076758  0.551156  1
  O  O42  1  0.941450  0.409493  0.284540  1
  O  O43  1  0.712532  0.707253  0.189658  1
  O  O44  1  0.591925  0.687032  0.373022  1
  O  O45  1  0.344200  0.344592  0.630391  1
  O  O46  1  0.337477  0.876197  0.469389  1
  O  O47  1  0.053220  0.590910  0.726846  1
  O  O48  1  0.322439  0.362167  0.799576  1
  O  O49  1  0.893654  0.377283  0.448945  1
  O  O50  1  0.941261  0.799608  0.287229  1
  O  O51  1  0.641299  0.105016  0.695229  1
  O  O52  1  0.358701  0.894984  0.638104  1
  O  O53  1  0.106346  0.622717  0.884388  1
  O  O54  1  0.677561  0.637833  0.533757  1
  O  O55  1  0.655800  0.655408  0.702942  1
  O  O56  1  0.946780  0.409090  0.606487  1
  O  O57  1  0.662523  0.123803  0.863944  1
  O  O58  1  0.319327  0.923242  0.782177  1
  O  O59  1  0.408075  0.312968  0.960312  1
  O  O60  1  0.027072  0.781241  0.591809  1
  O  O61  1  0.652458  0.604012  0.864214  1
  O  O62  1  0.390739  0.887371  0.959424  1
  O  O63  1  0.903265  0.342265  0.940307  1
  O  O64  1  0.903777  0.847707  0.795712  1
  O  O65  1  0.919790  0.963471  0.928477  1
