# generated using pymatgen
data_Dy14Ti10O41
_symmetry_space_group_name_H-M   'P 1'
_cell_length_a   7.28367206
_cell_length_b   7.30802389
_cell_length_c   21.79765664
_cell_angle_alpha   59.80796396
_cell_angle_beta   59.24057652
_cell_angle_gamma   59.88933902
_symmetry_Int_Tables_number   1
_chemical_formula_structural   Dy14Ti10O41
_chemical_formula_sum   'Dy14 Ti10 O41'
_cell_volume   813.77434743
_cell_formula_units_Z   1
loop_
 _symmetry_equiv_pos_site_id
 _symmetry_equiv_pos_as_xyz
  1  'x, y, z'
loop_
 _atom_site_type_symbol
 _atom_site_label
 _atom_site_symmetry_multiplicity
 _atom_site_fract_x
 _atom_site_fract_y
 _atom_site_fract_z
 _atom_site_occupancy
  Dy  Dy0  1  0.002072  0.969207  0.186505  1
  Dy  Dy1  1  0.533162  0.985468  0.998634  1
  Dy  Dy2  1  0.997015  0.512275  0.159479  1
  Dy  Dy3  1  0.512054  0.987806  0.167319  1
  Dy  Dy4  1  0.467409  0.529880  0.990943  1
  Dy  Dy5  1  0.512054  0.498185  0.167319  1
  Dy  Dy6  1  0.996846  0.494283  0.504863  1
  Dy  Dy7  1  0.502466  0.997262  0.500625  1
  Dy  Dy8  1  0.501010  0.496457  0.335359  1
  Dy  Dy9  1  0.502466  0.498397  0.500625  1
  Dy  Dy10  1  0.996449  0.499332  0.834962  1
  Dy  Dy11  1  0.530471  0.005696  0.824406  1
  Dy  Dy12  1  0.487629  0.508114  0.665381  1
  Dy  Dy13  1  0.530471  0.490615  0.824406  1
  Ti  Ti14  1  0.004875  0.007719  0.003034  1
  Ti  Ti15  1  0.004875  0.478305  0.003034  1
  Ti  Ti16  1  0.006340  0.003016  0.335922  1
  Ti  Ti17  1  0.006340  0.482877  0.335922  1
  Ti  Ti18  1  0.495209  0.001595  0.333866  1
  Ti  Ti19  1  0.006431  0.998741  0.665363  1
  Ti  Ti20  1  0.992291  0.000179  0.835783  1
  Ti  Ti21  1  0.006431  0.498741  0.665363  1
  Ti  Ti22  1  0.502083  0.998386  0.667049  1
  Ti  Ti23  1  0.003363  0.996337  0.501321  1
  O  O24  1  0.065181  0.674147  0.028841  1
  O  O25  1  0.128592  0.137782  0.217233  1
  O  O26  1  0.628276  0.151637  0.040763  1
  O  O27  1  0.128592  0.581928  0.217233  1
  O  O28  1  0.368383  0.879963  0.123897  1
  O  O29  1  0.326938  0.321154  0.322110  1
  O  O30  1  0.077113  0.700333  0.340740  1
  O  O31  1  0.079540  0.078940  0.555947  1
  O  O32  1  0.610788  0.115310  0.219531  1
  O  O33  1  0.628276  0.597796  0.040763  1
  O  O34  1  0.931947  0.332009  0.109804  1
  O  O35  1  0.374419  0.371904  0.460591  1
  O  O36  1  0.697083  0.068835  0.347371  1
  O  O37  1  0.640029  0.614093  0.210594  1
  O  O38  1  0.326938  0.885579  0.322110  1
  O  O39  1  0.079540  0.673679  0.555947  1
  O  O40  1  0.339176  0.911866  0.445698  1
  O  O41  1  0.331048  0.331333  0.636969  1
  O  O42  1  0.089301  0.678078  0.684848  1
  O  O43  1  0.997252  0.080970  0.903405  1
  O  O44  1  0.931947  0.906633  0.109804  1
  O  O45  1  0.697083  0.691970  0.347371  1
  O  O46  1  0.883758  0.313257  0.329909  1
  O  O47  1  0.674528  0.076584  0.557434  1
  O  O48  1  0.914255  0.338806  0.447008  1
  O  O49  1  0.331048  0.926712  0.636969  1
  O  O50  1  0.667177  0.084811  0.691547  1
  O  O51  1  0.623713  0.626495  0.541100  1
  O  O52  1  0.365485  0.382574  0.789789  1
  O  O53  1  0.997252  0.711563  0.903405  1
  O  O54  1  0.328120  0.361631  0.963128  1
  O  O55  1  0.316257  0.927080  0.776527  1
  O  O56  1  0.658250  0.116315  0.869706  1
  O  O57  1  0.914255  0.905915  0.447008  1
  O  O58  1  0.667177  0.673372  0.691547  1
  O  O59  1  0.922222  0.331582  0.638205  1
  O  O60  1  0.926972  0.348107  0.773892  1
  O  O61  1  0.328120  0.920865  0.963128  1
  O  O62  1  0.623984  0.632461  0.870365  1
  O  O63  1  0.978192  0.318816  0.961392  1
  O  O64  1  0.926972  0.903244  0.773892  1
