# generated using pymatgen
data_Dy4Mo4O11
_symmetry_space_group_name_H-M   'P 1'
_cell_length_a   5.75625773
_cell_length_b   10.86679513
_cell_length_c   16.12480819
_cell_angle_alpha   90.00000000
_cell_angle_beta   90.00000000
_cell_angle_gamma   90.00000000
_symmetry_Int_Tables_number   1
_chemical_formula_structural   Dy4Mo4O11
_chemical_formula_sum   'Dy16 Mo16 O44'
_cell_volume   1008.64018655
_cell_formula_units_Z   4
loop_
 _symmetry_equiv_pos_site_id
 _symmetry_equiv_pos_as_xyz
  1  'x, y, z'
loop_
 _atom_site_type_symbol
 _atom_site_label
 _atom_site_symmetry_multiplicity
 _atom_site_fract_x
 _atom_site_fract_y
 _atom_site_fract_z
 _atom_site_occupancy
  O  O0  1  0.245447  0.000000  0.000000  1
  O  O1  1  0.754553  0.500000  0.500000  1
  O  O2  1  0.754553  0.000000  0.000000  1
  O  O3  1  0.245447  0.500000  0.500000  1
  O  O4  1  0.000000  0.231490  0.523445  1
  O  O5  1  0.000000  0.768511  0.476556  1
  O  O6  1  0.000000  0.731490  0.976555  1
  O  O7  1  0.000000  0.268510  0.023445  1
  O  O8  1  0.000000  0.048417  0.654045  1
  O  O9  1  0.000000  0.951582  0.345954  1
  O  O10  1  0.000000  0.548418  0.845955  1
  O  O11  1  0.000000  0.451583  0.154046  1
  O  O12  1  0.499999  0.246828  0.512336  1
  O  O13  1  0.499999  0.753172  0.487665  1
  O  O14  1  0.499999  0.746828  0.987664  1
  O  O15  1  0.499999  0.253172  0.012336  1
  O  O16  1  0.499999  0.039186  0.666515  1
  O  O17  1  0.499999  0.960814  0.333486  1
  O  O18  1  0.763135  0.311163  0.861566  1
  O  O19  1  0.499999  0.460815  0.166514  1
  O  O20  1  0.247478  0.958424  0.171642  1
  O  O21  1  0.247478  0.041576  0.828359  1
  O  O22  1  0.752522  0.458424  0.328358  1
  O  O23  1  0.752522  0.541576  0.671641  1
  O  O24  1  0.752522  0.041576  0.828359  1
  O  O25  1  0.752522  0.958424  0.171642  1
  O  O26  1  0.247478  0.541576  0.671641  1
  O  O27  1  0.247478  0.458424  0.328358  1
  O  O28  1  0.236864  0.688837  0.138434  1
  O  O29  1  0.236864  0.311163  0.861566  1
  O  O30  1  0.763135  0.188837  0.361567  1
  O  O31  1  0.763135  0.811163  0.638434  1
  O  O32  1  0.264449  0.220211  0.177223  1
  O  O33  1  0.264449  0.779789  0.822777  1
  O  O34  1  0.735552  0.720211  0.322778  1
  O  O35  1  0.735552  0.279789  0.677223  1
  O  O36  1  0.735552  0.779789  0.822777  1
  O  O37  1  0.735552  0.220211  0.177223  1
  O  O38  1  0.264449  0.279789  0.677223  1
  O  O39  1  0.264449  0.720211  0.322778  1
  O  O40  1  0.236864  0.188837  0.361567  1
  O  O41  1  0.236864  0.811163  0.638434  1
  O  O42  1  0.763135  0.688837  0.138434  1
  O  O43  1  0.499999  0.539186  0.833485  1
  Mo  Mo44  1  0.000000  0.917072  0.559990  1
  Mo  Mo45  1  0.000000  0.082928  0.440010  1
  Mo  Mo46  1  0.000000  0.417072  0.940010  1
  Mo  Mo47  1  0.000000  0.582928  0.059990  1
  Mo  Mo48  1  0.499999  0.902571  0.571777  1
  Mo  Mo49  1  0.499999  0.097429  0.428223  1
  Mo  Mo50  1  0.499999  0.402571  0.928223  1
  Mo  Mo51  1  0.499999  0.597429  0.071777  1
  Mo  Mo52  1  0.274371  0.858661  0.410769  1
  Mo  Mo53  1  0.274371  0.141339  0.589231  1
  Mo  Mo54  1  0.725630  0.358661  0.089231  1
  Mo  Mo55  1  0.725630  0.641338  0.910769  1
  Mo  Mo56  1  0.725630  0.141339  0.589231  1
  Mo  Mo57  1  0.725630  0.858661  0.410769  1
  Mo  Mo58  1  0.274371  0.641338  0.910769  1
  Mo  Mo59  1  0.274371  0.358661  0.089231  1
  Dy  Dy60  1  0.000000  0.616374  0.576299  1
  Dy  Dy61  1  0.000000  0.383627  0.423702  1
  Dy  Dy62  1  0.000000  0.116373  0.923701  1
  Dy  Dy63  1  0.000000  0.883626  0.076299  1
  Dy  Dy64  1  0.000000  0.406156  0.737298  1
  Dy  Dy65  1  0.000000  0.593845  0.262702  1
  Dy  Dy66  1  0.000000  0.906155  0.762702  1
  Dy  Dy67  1  0.000000  0.093845  0.237298  1
  Dy  Dy68  1  0.499999  0.424552  0.598825  1
  Dy  Dy69  1  0.499999  0.575447  0.401175  1
  Dy  Dy70  1  0.499999  0.924553  0.901175  1
  Dy  Dy71  1  0.499999  0.075448  0.098825  1
  Dy  Dy72  1  0.499999  0.185249  0.778059  1
  Dy  Dy73  1  0.499999  0.814752  0.221940  1
  Dy  Dy74  1  0.499999  0.685248  0.721941  1
  Dy  Dy75  1  0.499999  0.314752  0.278060  1
