# generated using pymatgen
data_Dy2Ti2O7
_symmetry_space_group_name_H-M   'P 1'
_cell_length_a   7.24247951
_cell_length_b   7.24248025
_cell_length_c   28.87362260
_cell_angle_alpha   59.35163916
_cell_angle_beta   59.35163587
_cell_angle_gamma   59.60584827
_symmetry_Int_Tables_number   1
_chemical_formula_structural   Dy2Ti2O7
_chemical_formula_sum   'Dy16 Ti16 O56'
_cell_volume   1057.18249464
_cell_formula_units_Z   8
loop_
 _symmetry_equiv_pos_site_id
 _symmetry_equiv_pos_as_xyz
  1  'x, y, z'
loop_
 _atom_site_type_symbol
 _atom_site_label
 _atom_site_symmetry_multiplicity
 _atom_site_fract_x
 _atom_site_fract_y
 _atom_site_fract_z
 _atom_site_occupancy
  Dy  Dy0  1  0.989964  0.495576  -0.004364  1
  Dy  Dy1  1  0.000000  0.000000  0.125000  1
  Dy  Dy2  1  0.495576  0.989964  -0.004364  1
  Dy  Dy3  1  0.010036  0.504424  0.254364  1
  Dy  Dy4  1  0.472550  0.472550  0.011927  1
  Dy  Dy5  1  0.504424  0.010036  0.254364  1
  Dy  Dy6  1  0.998610  0.998610  0.500579  1
  Dy  Dy7  1  0.000000  0.000000  0.625000  1
  Dy  Dy8  1  -0.000757  0.499707  0.500720  1
  Dy  Dy9  1  -0.006862  -0.006862  0.375177  1
  Dy  Dy10  1  0.527450  0.527450  0.238073  1
  Dy  Dy11  1  0.499707  -0.000757  0.500720  1
  Dy  Dy12  1  1.000757  0.500293  0.749280  1
  Dy  Dy13  1  1.006862  1.006862  0.874823  1
  Dy  Dy14  1  0.001390  0.001390  0.749421  1
  Dy  Dy15  1  0.500293  1.000757  0.749280  1
  O  O16  1  0.101845  0.101845  0.029164  1
  O  O17  1  0.266744  0.266744  0.098977  1
  O  O18  1  0.081526  0.697896  0.042315  1
  O  O19  1  0.161535  0.601366  0.140667  1
  O  O20  1  0.697896  0.081526  0.042315  1
  O  O21  1  0.119318  0.119318  0.283066  1
  O  O22  1  0.601366  0.161535  0.140667  1
  O  O23  1  0.597175  0.597175  0.043219  1
  O  O24  1  0.175665  0.175665  0.395077  1
  O  O25  1  0.159088  0.581610  0.293017  1
  O  O26  1  0.398634  0.838465  0.109333  1
  O  O27  1  0.402825  0.402825  0.206781  1
  O  O28  1  0.838465  0.398634  0.109333  1
  O  O29  1  0.581610  0.159088  0.293017  1
  O  O30  1  0.302104  0.918474  0.207685  1
  O  O31  1  0.174265  0.579956  0.393719  1
  O  O32  1  0.124743  0.124743  0.530793  1
  O  O33  1  0.733256  0.733256  0.151023  1
  O  O34  1  0.613276  0.613276  0.285537  1
  O  O35  1  0.918474  0.302104  0.207685  1
  O  O36  1  0.579956  0.174265  0.393719  1
  O  O37  1  0.169929  0.582044  0.542178  1
  O  O38  1  0.422571  0.422571  0.456620  1
  O  O39  1  0.412430  0.831315  0.357396  1
  O  O40  1  0.169923  0.169923  0.644967  1
  O  O41  1  0.831315  0.412430  0.357396  1
  O  O42  1  0.125693  0.125693  0.780353  1
  O  O43  1  0.426949  0.828999  0.456839  1
  O  O44  1  0.168838  0.580484  0.645227  1
  O  O45  1  0.898155  0.898155  0.220836  1
  O  O46  1  0.582044  0.169929  0.542178  1
  O  O47  1  0.828999  0.426949  0.456839  1
  O  O48  1  0.580343  0.580343  0.542618  1
  O  O49  1  0.846816  0.846816  0.348317  1
  O  O50  1  0.580484  0.168838  0.645227  1
  O  O51  1  0.153184  0.153184  0.901683  1
  O  O52  1  0.419516  0.831162  0.604773  1
  O  O53  1  0.419657  0.419657  0.707382  1
  O  O54  1  0.171001  0.573051  0.793161  1
  O  O55  1  0.168685  0.587570  0.892604  1
  O  O56  1  0.831162  0.419516  0.604773  1
  O  O57  1  0.417956  0.830071  0.707822  1
  O  O58  1  0.573051  0.171001  0.793161  1
  O  O59  1  0.874307  0.874307  0.469647  1
  O  O60  1  0.830071  0.417956  0.707822  1
  O  O61  1  0.587570  0.168685  0.892604  1
  O  O62  1  0.830077  0.830077  0.605033  1
  O  O63  1  0.577429  0.577429  0.793380  1
  O  O64  1  0.386724  0.386724  0.964463  1
  O  O65  1  0.420044  0.825735  0.856281  1
  O  O66  1  0.875257  0.875257  0.719207  1
  O  O67  1  0.418390  0.840912  0.956983  1
  O  O68  1  0.825735  0.420044  0.856281  1
  O  O69  1  0.840912  0.418390  0.956983  1
  O  O70  1  0.824335  0.824335  0.854923  1
  O  O71  1  0.880682  0.880682  0.966934  1
  Ti  Ti72  1  0.003101  0.003101  0.993902  1
  Ti  Ti73  1  0.996899  0.996899  0.256098  1
  Ti  Ti74  1  0.000000  0.500000  0.125000  1
  Ti  Ti75  1  0.500000  0.000000  0.125000  1
  Ti  Ti76  1  0.500000  0.500000  0.125000  1
  Ti  Ti77  1  0.015395  0.501071  0.373467  1
  Ti  Ti78  1  0.511284  0.511284  0.373850  1
  Ti  Ti79  1  0.000000  0.500000  0.625000  1
  Ti  Ti80  1  0.500000  0.000000  0.625000  1
  Ti  Ti81  1  0.501071  0.015395  0.373467  1
  Ti  Ti82  1  0.504439  0.504439  0.498474  1
  Ti  Ti83  1  0.500000  0.500000  0.625000  1
  Ti  Ti84  1  0.984605  0.498929  0.876533  1
  Ti  Ti85  1  0.498929  0.984605  0.876533  1
  Ti  Ti86  1  0.495561  0.495561  0.751526  1
  Ti  Ti87  1  0.488716  0.488716  0.876150  1
