# generated using pymatgen
data_Dy2TiO5
_symmetry_space_group_name_H-M   'P 1'
_cell_length_a   7.25505298
_cell_length_b   7.49984663
_cell_length_c   21.60493053
_cell_angle_alpha   61.03608766
_cell_angle_beta   59.97166122
_cell_angle_gamma   61.14256550
_symmetry_Int_Tables_number   1
_chemical_formula_structural   Dy2TiO5
_chemical_formula_sum   'Dy16 Ti8 O40'
_cell_volume   844.48495763
_cell_formula_units_Z   8
loop_
 _symmetry_equiv_pos_site_id
 _symmetry_equiv_pos_as_xyz
  1  'x, y, z'
loop_
 _atom_site_type_symbol
 _atom_site_label
 _atom_site_symmetry_multiplicity
 _atom_site_fract_x
 _atom_site_fract_y
 _atom_site_fract_z
 _atom_site_occupancy
  Dy  Dy0  1  0.985738  0.533266  0.998971  1
  Dy  Dy1  1  0.993760  0.962077  0.343701  1
  Dy  Dy2  1  0.981050  0.008678  0.172654  1
  Dy  Dy3  1  0.538673  0.451131  -0.000005  1
  Dy  Dy4  1  0.974761  0.506387  0.330774  1
  Dy  Dy5  1  0.456122  0.555726  0.155217  1
  Dy  Dy6  1  0.979715  0.486168  0.505132  1
  Dy  Dy7  1  0.516555  0.998002  0.158423  1
  Dy  Dy8  1  0.965210  0.988194  0.520567  1
  Dy  Dy9  1  0.522626  0.477078  0.317930  1
  Dy  Dy10  1  0.500396  0.474797  0.504589  1
  Dy  Dy11  1  0.982209  0.551906  0.827974  1
  Dy  Dy12  1  0.505078  0.967084  0.501630  1
  Dy  Dy13  1  0.465983  0.006047  0.850578  1
  Dy  Dy14  1  0.472662  0.520003  0.672643  1
  Dy  Dy15  1  0.479161  0.551171  0.825381  1
  O  O16  1  0.335470  0.358508  0.128119  1
  O  O17  1  0.049565  0.709774  0.049528  1
  O  O18  1  0.078015  0.655403  0.196333  1
  O  O19  1  0.666651  0.078688  0.023828  1
  O  O20  1  0.337140  0.925763  0.118524  1
  O  O21  1  0.141256  0.115679  0.549698  1
  O  O22  1  0.390366  0.310596  0.282225  1
  O  O23  1  0.147564  0.605017  0.368150  1
  O  O24  1  0.815774  0.886320  0.297559  1
  O  O25  1  0.613715  0.657279  0.033004  1
  O  O26  1  0.380270  0.947745  0.286644  1
  O  O27  1  0.107018  0.591876  0.565379  1
  O  O28  1  0.936020  0.353762  0.125972  1
  O  O29  1  0.650282  0.643119  0.194222  1
  O  O30  1  0.602684  0.131896  0.381165  1
  O  O31  1  0.336147  0.903859  0.438119  1
  O  O32  1  0.073047  0.007889  0.903548  1
  O  O33  1  0.338085  0.301620  0.658028  1
  O  O34  1  0.076548  0.649761  0.696150  1
  O  O35  1  0.827372  0.074202  0.102023  1
  O  O36  1  0.943544  0.314535  0.266314  1
  O  O37  1  0.575218  0.119065  0.549701  1
  O  O38  1  0.609485  0.546277  0.383357  1
  O  O39  1  0.102023  0.680358  0.871107  1
  O  O40  1  0.366272  0.364331  0.797121  1
  O  O41  1  0.309030  0.885307  0.660812  1
  O  O42  1  0.892618  0.336764  0.457315  1
  O  O43  1  0.771511  0.008516  0.643979  1
  O  O44  1  0.607218  0.610248  0.547021  1
  O  O45  1  0.348718  0.935509  0.775969  1
  O  O46  1  0.355831  0.339066  0.966452  1
  O  O47  1  0.894590  0.859611  0.462010  1
  O  O48  1  0.869058  0.311053  0.652780  1
  O  O49  1  0.691932  0.018120  0.901326  1
  O  O50  1  0.671211  0.647913  0.696891  1
  O  O51  1  0.285581  0.996336  0.974195  1
  O  O52  1  0.914973  0.309672  0.783670  1
  O  O53  1  0.602306  0.646850  0.877449  1
  O  O54  1  0.911115  0.350216  0.955743  1
  O  O55  1  0.876235  0.937731  0.774979  1
  Ti  Ti56  1  0.985575  0.014223  1.002622  1
  Ti  Ti57  1  0.487292  0.030266  0.995990  1
  Ti  Ti58  1  0.004678  0.492121  0.163688  1
  Ti  Ti59  1  0.489309  0.011021  0.337361  1
  Ti  Ti60  1  0.990964  0.021459  0.664221  1
  Ti  Ti61  1  1.003644  0.004050  0.831200  1
  Ti  Ti62  1  0.987532  0.495796  0.674427  1
  Ti  Ti63  1  0.479850  0.017112  0.664592  1
