# generated using pymatgen
data_Cd(AgO2)2
_symmetry_space_group_name_H-M   'P 1'
_cell_length_a   6.01280238
_cell_length_b   7.26728142
_cell_length_c   6.01280238
_cell_angle_alpha   65.56316171
_cell_angle_beta   90.00000000
_cell_angle_gamma   114.43683829
_symmetry_Int_Tables_number   1
_chemical_formula_structural   Cd(AgO2)2
_chemical_formula_sum   'Cd2 Ag4 O8'
_cell_volume   213.08202748
_cell_formula_units_Z   2
loop_
 _symmetry_equiv_pos_site_id
 _symmetry_equiv_pos_as_xyz
  1  'x, y, z'
loop_
 _atom_site_type_symbol
 _atom_site_label
 _atom_site_symmetry_multiplicity
 _atom_site_fract_x
 _atom_site_fract_y
 _atom_site_fract_z
 _atom_site_occupancy
  Cd  Cd0  1  0.000000  0.000000  0.000000  1
  Cd  Cd1  1  0.750000  0.500000  0.750000  1
  Ag  Ag2  1  0.375000  0.250000  0.375000  1
  Ag  Ag3  1  0.875000  0.250000  0.375000  1
  Ag  Ag4  1  0.375000  0.750000  0.375000  1
  Ag  Ag5  1  0.375000  0.750000  0.875000  1
  O  O6  1  0.130724  0.261448  0.138611  1
  O  O7  1  0.619276  0.238552  0.150059  1
  O  O8  1  0.599941  0.738552  0.130724  1
  O  O9  1  0.138611  0.738552  0.130724  1
  O  O10  1  0.619276  0.238552  0.611389  1
  O  O11  1  0.130724  0.261448  0.599941  1
  O  O12  1  0.150059  0.761448  0.619276  1
  O  O13  1  0.611389  0.761448  0.619276  1
