# generated using pymatgen
data_DyMn4(CuO4)3
_symmetry_space_group_name_H-M   'P 1'
_cell_length_a   6.41572624
_cell_length_b   6.41575302
_cell_length_c   6.41575578
_cell_angle_alpha   109.47343128
_cell_angle_beta   109.47615835
_cell_angle_gamma   109.46462624
_symmetry_Int_Tables_number   1
_chemical_formula_structural   DyMn4(CuO4)3
_chemical_formula_sum   'Dy1 Mn4 Cu3 O12'
_cell_volume   203.29018976
_cell_formula_units_Z   1
loop_
 _symmetry_equiv_pos_site_id
 _symmetry_equiv_pos_as_xyz
  1  'x, y, z'
loop_
 _atom_site_type_symbol
 _atom_site_label
 _atom_site_symmetry_multiplicity
 _atom_site_fract_x
 _atom_site_fract_y
 _atom_site_fract_z
 _atom_site_occupancy
  Dy  Dy0  1  1.000003  1.000006  0.000004  1
  Mn  Mn1  1  0.999997  0.999999  0.500006  1
  Mn  Mn2  1  0.499983  1.000001  0.000005  1
  Mn  Mn3  1  0.499997  0.499994  0.499992  1
  Mn  Mn4  1  0.000006  0.500003  1.000003  1
  Cu  Cu5  1  0.499992  0.999986  0.500020  1
  Cu  Cu6  1  0.500025  0.500024  0.999976  1
  Cu  Cu7  1  0.000000  0.499985  0.499981  1
  O  O8  1  0.830128  0.698113  0.528252  1
  O  O9  1  0.169861  0.698117  0.867981  1
  O  O10  1  0.528254  0.830118  0.698146  1
  O  O11  1  0.698136  0.528252  0.830111  1
  O  O12  1  0.131988  0.830123  0.301872  1
  O  O13  1  0.867999  0.169872  0.698138  1
  O  O14  1  0.301883  0.132016  0.830128  1
  O  O15  1  0.169866  0.301875  0.471749  1
  O  O16  1  0.698127  0.868016  0.169881  1
  O  O17  1  0.471738  0.169865  0.301883  1
  O  O18  1  0.830124  0.301876  0.132005  1
  O  O19  1  0.301890  0.471761  0.169868  1
