# generated using pymatgen
data_DyNiC2
_symmetry_space_group_name_H-M   'P 1'
_cell_length_a   3.59419180
_cell_length_b   3.75669104
_cell_length_c   3.75669105
_cell_angle_alpha   106.09985546
_cell_angle_beta   90.00000000
_cell_angle_gamma   90.00000000
_symmetry_Int_Tables_number   1
_chemical_formula_structural   DyNiC2
_chemical_formula_sum   'Dy1 Ni1 C2'
_cell_volume   48.73445303
_cell_formula_units_Z   1
loop_
 _symmetry_equiv_pos_site_id
 _symmetry_equiv_pos_as_xyz
  1  'x, y, z'
loop_
 _atom_site_type_symbol
 _atom_site_label
 _atom_site_symmetry_multiplicity
 _atom_site_fract_x
 _atom_site_fract_y
 _atom_site_fract_z
 _atom_site_occupancy
  C  C0  1  0.500000  0.150073  0.545800  1
  C  C1  1  0.500000  0.454200  0.849927  1
  Ni  Ni2  1  0.500000  0.613606  0.386394  1
  Dy  Dy3  1  0.000000  0.002121  0.997879  1
