# generated using pymatgen
data_Cd(AgO2)2
_symmetry_space_group_name_H-M   'P 1'
_cell_length_a   6.70518572
_cell_length_b   7.38890935
_cell_length_c   6.11480826
_cell_angle_alpha   104.40475853
_cell_angle_beta   123.24871570
_cell_angle_gamma   63.01654516
_symmetry_Int_Tables_number   1
_chemical_formula_structural   Cd(AgO2)2
_chemical_formula_sum   'Cd2 Ag4 O8'
_cell_volume   225.77718002
_cell_formula_units_Z   2
loop_
 _symmetry_equiv_pos_site_id
 _symmetry_equiv_pos_as_xyz
  1  'x, y, z'
loop_
 _atom_site_type_symbol
 _atom_site_label
 _atom_site_symmetry_multiplicity
 _atom_site_fract_x
 _atom_site_fract_y
 _atom_site_fract_z
 _atom_site_occupancy
  Cd  Cd0  1  0.875000  0.250000  0.250000  1
  Cd  Cd1  1  0.125000  0.750000  0.750000  1
  Ag  Ag2  1  0.497195  0.005611  0.250000  1
  Ag  Ag3  1  0.747195  0.505611  0.750000  1
  Ag  Ag4  1  0.252805  0.494389  0.250000  1
  Ag  Ag5  1  0.502805  0.994389  0.750000  1
  O  O6  1  0.902562  0.501229  0.143781  1
  O  O7  1  0.739990  0.001229  0.643781  1
  O  O8  1  0.741218  0.998771  0.143781  1
  O  O9  1  0.596210  0.501229  0.356219  1
  O  O10  1  0.258782  0.001229  0.856219  1
  O  O11  1  0.403790  0.498771  0.643781  1
  O  O12  1  0.260010  0.998771  0.356219  1
  O  O13  1  0.097438  0.498771  0.856219  1
