# generated using pymatgen
data_Dy10Ti6O27
_symmetry_space_group_name_H-M   'P 1'
_cell_length_a   7.29365801
_cell_length_b   7.35811554
_cell_length_c   29.41828637
_cell_angle_alpha   59.98405799
_cell_angle_beta   59.53767224
_cell_angle_gamma   59.70722362
_symmetry_Int_Tables_number   1
_chemical_formula_structural   Dy10Ti6O27
_chemical_formula_sum   'Dy20 Ti12 O54'
_cell_volume   1109.83551929
_cell_formula_units_Z   2
loop_
 _symmetry_equiv_pos_site_id
 _symmetry_equiv_pos_as_xyz
  1  'x, y, z'
loop_
 _atom_site_type_symbol
 _atom_site_label
 _atom_site_symmetry_multiplicity
 _atom_site_fract_x
 _atom_site_fract_y
 _atom_site_fract_z
 _atom_site_occupancy
  Dy  Dy0  1  0.983214  0.005314  0.243836  1
  Dy  Dy1  1  0.983214  0.536130  0.243836  1
  Dy  Dy2  1  0.498607  0.536206  0.112778  1
  Dy  Dy3  1  0.525847  0.517495  0.234791  1
  Dy  Dy4  1  0.498607  0.014075  0.112778  1
  Dy  Dy5  1  0.512456  0.504909  0.372716  1
  Dy  Dy6  1  0.515657  0.979959  0.506106  1
  Dy  Dy7  1  0.986793  0.997183  0.379710  1
  Dy  Dy8  1  0.552028  0.481164  0.496411  1
  Dy  Dy9  1  0.512456  0.991771  0.372716  1
  Dy  Dy10  1  0.007514  0.518759  0.363742  1
  Dy  Dy11  1  0.465167  0.517756  0.633875  1
  Dy  Dy12  1  0.491665  0.002097  0.751035  1
  Dy  Dy13  1  0.981234  0.508746  0.875319  1
  Dy  Dy14  1  0.521493  0.477444  0.755905  1
  Dy  Dy15  1  0.465167  0.981576  0.633875  1
  Dy  Dy16  1  0.981167  0.482668  0.638374  1
  Dy  Dy17  1  0.451742  0.520646  0.879582  1
  Dy  Dy18  1  0.508562  0.500279  0.997720  1
  Dy  Dy19  1  0.451742  0.009286  0.879582  1
  Ti  Ti20  1  0.980761  0.014597  0.998597  1
  Ti  Ti21  1  0.980761  0.510255  0.998597  1
  Ti  Ti22  1  0.494537  0.016661  0.993035  1
  Ti  Ti23  1  0.496176  0.009972  0.245970  1
  Ti  Ti24  1  0.018678  0.009225  0.492154  1
  Ti  Ti25  1  0.018678  0.503482  0.492154  1
  Ti  Ti26  1  0.018367  0.470056  0.135380  1
  Ti  Ti27  1  0.988870  0.995834  0.752551  1
  Ti  Ti28  1  0.006965  0.009547  0.118486  1
  Ti  Ti29  1  0.996057  0.003747  0.874112  1
  Ti  Ti30  1  0.988870  0.505092  0.752551  1
  Ti  Ti31  1  0.986642  0.025667  0.615506  1
  O  O32  1  0.368078  0.386346  0.089808  1
  O  O33  1  0.100048  0.159105  0.145085  1
  O  O34  1  0.100048  0.660506  0.145085  1
  O  O35  1  0.645408  0.100470  0.015933  1
  O  O36  1  0.154977  0.634525  0.268993  1
  O  O37  1  0.121821  0.133035  0.409574  1
  O  O38  1  0.324341  0.921285  0.083272  1
  O  O39  1  0.395073  0.321760  0.207975  1
  O  O40  1  0.645408  0.690390  0.015933  1
  O  O41  1  0.823052  0.927911  0.205282  1
  O  O42  1  0.700427  0.621547  0.139120  1
  O  O43  1  0.121821  0.606847  0.409574  1
  O  O44  1  0.880750  0.322368  0.078536  1
  O  O45  1  0.395073  0.951267  0.207975  1
  O  O46  1  0.601920  0.164487  0.281980  1
  O  O47  1  0.914680  0.822867  0.484897  1
  O  O48  1  0.064050  0.107812  0.668480  1
  O  O49  1  0.353001  0.925211  0.324144  1
  O  O50  1  0.313182  0.390896  0.485470  1
  O  O51  1  0.880750  0.982738  0.078536  1
  O  O52  1  0.601920  0.605673  0.281980  1
  O  O53  1  0.924745  0.364444  0.211592  1
  O  O54  1  0.591658  0.131597  0.411287  1
  O  O55  1  0.639037  0.620393  0.405044  1
  O  O56  1  0.064050  0.654219  0.668480  1
  O  O57  1  0.900319  0.363216  0.335081  1
  O  O58  1  0.313182  0.854041  0.485470  1
  O  O59  1  0.614886  0.123332  0.540257  1
  O  O60  1  0.998878  0.700957  0.774802  1
  O  O61  1  0.059393  0.109214  0.916690  1
  O  O62  1  0.315288  0.899497  0.596430  1
  O  O63  1  0.322742  0.375107  0.730373  1
  O  O64  1  0.614886  0.600755  0.540257  1
  O  O65  1  0.900319  0.896139  0.335081  1
  O  O66  1  0.635093  0.124898  0.653778  1
  O  O67  1  0.932482  0.314915  0.484422  1
  O  O68  1  0.631985  0.619287  0.657360  1
  O  O69  1  0.353418  0.379792  0.846750  1
  O  O70  1  0.059393  0.664631  0.916690  1
  O  O71  1  0.655017  0.095822  0.779304  1
  O  O72  1  0.968169  0.323851  0.576945  1
  O  O73  1  0.322742  0.880658  0.730373  1
  O  O74  1  0.302351  0.337692  0.981202  1
  O  O75  1  0.321951  0.901108  0.843958  1
  O  O76  1  0.656314  0.087289  0.917277  1
  O  O77  1  0.917820  0.330353  0.730368  1
  O  O78  1  0.968169  0.900202  0.576945  1
  O  O79  1  0.655017  0.631944  0.779304  1
  O  O80  1  0.608261  0.633989  0.905940  1
  O  O81  1  0.954420  0.303983  0.828039  1
  O  O82  1  0.302351  0.935148  0.981202  1
  O  O83  1  0.886991  0.351492  0.977506  1
  O  O84  1  0.954420  0.929438  0.828039  1
  O  O85  1  0.028734  0.715954  0.009840  1
