# generated using pymatgen
data_Dy12Co7
_symmetry_space_group_name_H-M   'P 1'
_cell_length_a   8.27900681
_cell_length_b   9.19665124
_cell_length_c   11.21546212
_cell_angle_alpha   90.00000000
_cell_angle_beta   90.00000000
_cell_angle_gamma   102.07447512
_symmetry_Int_Tables_number   1
_chemical_formula_structural   Dy12Co7
_chemical_formula_sum   'Dy24 Co14'
_cell_volume   835.04359661
_cell_formula_units_Z   2
loop_
 _symmetry_equiv_pos_site_id
 _symmetry_equiv_pos_as_xyz
  1  'x, y, z'
loop_
 _atom_site_type_symbol
 _atom_site_label
 _atom_site_symmetry_multiplicity
 _atom_site_fract_x
 _atom_site_fract_y
 _atom_site_fract_z
 _atom_site_occupancy
  Dy  Dy0  1  0.840701  0.342676  0.158656  1
  Dy  Dy1  1  0.300081  0.146937  0.505440  1
  Dy  Dy2  1  0.340701  0.842676  0.341344  1
  Dy  Dy3  1  0.425344  0.175644  0.199773  1
  Dy  Dy4  1  0.643875  0.414254  0.427689  1
  Dy  Dy5  1  0.427627  0.694778  0.070066  1
  Dy  Dy6  1  0.927627  0.194778  0.429934  1
  Dy  Dy7  1  0.772056  0.538316  0.704980  1
  Dy  Dy8  1  0.074656  0.324356  0.699773  1
  Dy  Dy9  1  0.072373  0.805222  0.570066  1
  Dy  Dy10  1  0.356125  0.585746  0.572311  1
  Dy  Dy11  1  0.699919  0.853063  0.494560  1
  Dy  Dy12  1  0.659299  0.157324  0.658656  1
  Dy  Dy13  1  0.800081  0.646937  0.994560  1
  Dy  Dy14  1  0.572373  0.305222  0.929934  1
  Dy  Dy15  1  0.143875  0.914254  0.072311  1
  Dy  Dy16  1  0.272056  0.038316  0.795020  1
  Dy  Dy17  1  0.727944  0.961684  0.204980  1
  Dy  Dy18  1  0.227944  0.461684  0.295020  1
  Dy  Dy19  1  0.199919  0.353063  0.005440  1
  Dy  Dy20  1  0.925344  0.675644  0.300227  1
  Dy  Dy21  1  0.574656  0.824356  0.800227  1
  Dy  Dy22  1  0.159299  0.657324  0.841344  1
  Dy  Dy23  1  0.856125  0.085746  0.927689  1
  Co  Co24  1  0.000000  0.500000  0.500000  1
  Co  Co25  1  0.940354  0.031086  0.672577  1
  Co  Co26  1  0.940655  0.843295  0.809302  1
  Co  Co27  1  0.559646  0.468914  0.172577  1
  Co  Co28  1  0.407183  0.900595  0.597944  1
  Co  Co29  1  0.907183  0.400595  0.902056  1
  Co  Co30  1  0.059646  0.968914  0.327423  1
  Co  Co31  1  0.592817  0.099405  0.402056  1
  Co  Co32  1  0.500000  0.000000  0.000000  1
  Co  Co33  1  0.559345  0.656705  0.309302  1
  Co  Co34  1  0.440354  0.531086  0.827423  1
  Co  Co35  1  0.440655  0.343295  0.690698  1
  Co  Co36  1  0.092817  0.599405  0.097944  1
  Co  Co37  1  0.059345  0.156705  0.190698  1
