# generated using pymatgen
data_DyCrO4
_symmetry_space_group_name_H-M   'P 1'
_cell_length_a   5.99283733
_cell_length_b   5.99283733
_cell_length_c   5.99283733
_cell_angle_alpha   105.98812991
_cell_angle_beta   105.98812992
_cell_angle_gamma   116.68746852
_symmetry_Int_Tables_number   1
_chemical_formula_structural   DyCrO4
_chemical_formula_sum   'Dy2 Cr2 O8'
_cell_volume   163.68729967
_cell_formula_units_Z   2
loop_
 _symmetry_equiv_pos_site_id
 _symmetry_equiv_pos_as_xyz
  1  'x, y, z'
loop_
 _atom_site_type_symbol
 _atom_site_label
 _atom_site_symmetry_multiplicity
 _atom_site_fract_x
 _atom_site_fract_y
 _atom_site_fract_z
 _atom_site_occupancy
  O  O0  1  0.299749  0.233816  0.434066  1
  O  O1  1  0.865683  0.299749  0.565934  1
  O  O2  1  0.233816  0.299749  0.934066  1
  O  O3  1  0.299749  0.865683  0.065934  1
  O  O4  1  0.134317  0.700251  0.434066  1
  O  O5  1  0.700251  0.766184  0.565934  1
  O  O6  1  0.700251  0.134317  0.934066  1
  O  O7  1  0.766184  0.700251  0.065934  1
  Cr  Cr8  1  0.875000  0.125000  0.750000  1
  Cr  Cr9  1  0.125000  0.875000  0.250000  1
  Dy  Dy10  1  0.375000  0.625000  0.750000  1
  Dy  Dy11  1  0.625000  0.375000  0.250000  1
