# generated using pymatgen
data_DyHg3
_symmetry_space_group_name_H-M   'P 1'
_cell_length_a   6.67731683
_cell_length_b   6.67731695
_cell_length_c   5.00461773
_cell_angle_alpha   90.00000000
_cell_angle_beta   90.00000000
_cell_angle_gamma   119.99999422
_symmetry_Int_Tables_number   1
_chemical_formula_structural   DyHg3
_chemical_formula_sum   'Dy2 Hg6'
_cell_volume   193.24378793
_cell_formula_units_Z   2
loop_
 _symmetry_equiv_pos_site_id
 _symmetry_equiv_pos_as_xyz
  1  'x, y, z'
loop_
 _atom_site_type_symbol
 _atom_site_label
 _atom_site_symmetry_multiplicity
 _atom_site_fract_x
 _atom_site_fract_y
 _atom_site_fract_z
 _atom_site_occupancy
  Dy  Dy0  1  0.333334  0.666667  0.749999  1
  Dy  Dy1  1  0.666668  0.333335  0.250001  1
  Hg  Hg2  1  0.166371  0.332742  0.250001  1
  Hg  Hg3  1  0.667257  0.833628  0.250001  1
  Hg  Hg4  1  0.166372  0.833628  0.250001  1
  Hg  Hg5  1  0.833628  0.667256  0.749999  1
  Hg  Hg6  1  0.332744  0.166372  0.749999  1
  Hg  Hg7  1  0.833629  0.166372  0.749999  1
