# generated using pymatgen
data_DyNbO4
_symmetry_space_group_name_H-M   'P 1'
_cell_length_a   5.14675767
_cell_length_b   5.35030736
_cell_length_c   6.61424738
_cell_angle_alpha   112.11755938
_cell_angle_beta   111.10116204
_cell_angle_gamma   94.11886991
_symmetry_Int_Tables_number   1
_chemical_formula_structural   DyNbO4
_chemical_formula_sum   'Dy2 Nb2 O8'
_cell_volume   152.81959380
_cell_formula_units_Z   2
loop_
 _symmetry_equiv_pos_site_id
 _symmetry_equiv_pos_as_xyz
  1  'x, y, z'
loop_
 _atom_site_type_symbol
 _atom_site_label
 _atom_site_symmetry_multiplicity
 _atom_site_fract_x
 _atom_site_fract_y
 _atom_site_fract_z
 _atom_site_occupancy
  Dy  Dy0  1  0.378301  0.128301  0.756603  1
  Dy  Dy1  1  0.621699  0.871699  0.243397  1
  Nb  Nb2  1  0.858016  0.608016  0.716033  1
  Nb  Nb3  1  0.141984  0.391984  0.283967  1
  O  O4  1  0.788633  0.129883  0.079817  1
  O  O5  1  0.291184  0.449934  0.079817  1
  O  O6  1  0.211367  0.870117  0.920183  1
  O  O7  1  0.708816  0.550066  0.920183  1
  O  O8  1  0.579306  0.782986  0.565519  1
  O  O9  1  0.986213  0.282533  0.565519  1
  O  O10  1  0.420694  0.217014  0.434481  1
  O  O11  1  0.013787  0.717467  0.434481  1
