# generated using pymatgen
data_DyNbO4
_symmetry_space_group_name_H-M   'P 1'
_cell_length_a   6.17901252
_cell_length_b   6.17901252
_cell_length_c   6.17901252
_cell_angle_alpha   107.22993660
_cell_angle_beta   107.22993660
_cell_angle_gamma   114.05326407
_symmetry_Int_Tables_number   1
_chemical_formula_structural   DyNbO4
_chemical_formula_sum   'Dy2 Nb2 O8'
_cell_volume   180.72982936
_cell_formula_units_Z   2
loop_
 _symmetry_equiv_pos_site_id
 _symmetry_equiv_pos_as_xyz
  1  'x, y, z'
loop_
 _atom_site_type_symbol
 _atom_site_label
 _atom_site_symmetry_multiplicity
 _atom_site_fract_x
 _atom_site_fract_y
 _atom_site_fract_z
 _atom_site_occupancy
  Dy  Dy0  1  0.625000  0.375000  0.250000  1
  Dy  Dy1  1  0.375000  0.625000  0.750000  1
  Nb  Nb2  1  0.875000  0.125000  0.750000  1
  Nb  Nb3  1  0.125000  0.875000  0.250000  1
  O  O4  1  0.692826  0.135927  0.943101  1
  O  O5  1  0.250276  0.307174  0.943101  1
  O  O6  1  0.864073  0.307174  0.556899  1
  O  O7  1  0.692826  0.749724  0.556899  1
  O  O8  1  0.307174  0.250276  0.443101  1
  O  O9  1  0.749724  0.692826  0.056899  1
  O  O10  1  0.135927  0.692826  0.443101  1
  O  O11  1  0.307174  0.864073  0.056899  1
