# generated using pymatgen
data_DyTa7O19
_symmetry_space_group_name_H-M   'P 1'
_cell_length_a   6.26952786
_cell_length_b   6.26952785
_cell_length_c   20.07634181
_cell_angle_alpha   90.00000000
_cell_angle_beta   90.00000000
_cell_angle_gamma   120.00000003
_symmetry_Int_Tables_number   1
_chemical_formula_structural   DyTa7O19
_chemical_formula_sum   'Dy2 Ta14 O38'
_cell_volume   683.41559611
_cell_formula_units_Z   2
loop_
 _symmetry_equiv_pos_site_id
 _symmetry_equiv_pos_as_xyz
  1  'x, y, z'
loop_
 _atom_site_type_symbol
 _atom_site_label
 _atom_site_symmetry_multiplicity
 _atom_site_fract_x
 _atom_site_fract_y
 _atom_site_fract_z
 _atom_site_occupancy
  O  O0  1  0.333333  0.666667  0.631344  1
  O  O1  1  0.333333  0.666667  0.868656  1
  O  O2  1  0.333333  0.666667  0.368656  1
  O  O3  1  0.333333  0.666667  0.131344  1
  O  O4  1  0.666667  0.333333  0.665804  1
  O  O5  1  0.666667  0.333333  0.834196  1
  O  O6  1  0.666667  0.333333  0.334196  1
  O  O7  1  0.666667  0.333333  0.165804  1
  O  O8  1  0.754784  0.000221  0.652959  1
  O  O9  1  0.999779  0.245216  0.347041  1
  O  O10  1  0.999779  0.754563  0.652959  1
  O  O11  1  0.245437  0.245216  0.652959  1
  O  O12  1  0.999779  0.754563  0.847041  1
  O  O13  1  0.245437  0.245216  0.847041  1
  O  O14  1  0.754784  0.000221  0.847041  1
  O  O15  1  0.245437  0.000221  0.152959  1
  O  O16  1  0.376583  0.417895  0.250000  1
  O  O17  1  0.041312  0.623417  0.250000  1
  O  O18  1  0.582105  0.958688  0.250000  1
  O  O19  1  0.582105  0.623417  0.750000  1
  O  O20  1  0.041312  0.417895  0.750000  1
  O  O21  1  0.376583  0.958688  0.750000  1
  O  O22  1  0.429985  0.386056  0.055687  1
  O  O23  1  0.956070  0.570015  0.444313  1
  O  O24  1  0.613944  0.043930  0.444313  1
  O  O25  1  0.613944  0.043930  0.055687  1
  O  O26  1  0.956070  0.570015  0.055687  1
  O  O27  1  0.613944  0.570015  0.944313  1
  O  O28  1  0.956070  0.386056  0.944313  1
  O  O29  1  0.429985  0.043930  0.944313  1
  O  O30  1  0.956070  0.386056  0.555687  1
  O  O31  1  0.429985  0.043930  0.555687  1
  O  O32  1  0.429985  0.386056  0.444313  1
  O  O33  1  0.613944  0.570015  0.555687  1
  O  O34  1  0.999779  0.245216  0.152959  1
  O  O35  1  0.245437  0.000221  0.347041  1
  O  O36  1  0.754784  0.754563  0.347041  1
  O  O37  1  0.754784  0.754563  0.152959  1
  Dy  Dy38  1  0.333333  0.666667  0.500000  1
  Dy  Dy39  1  0.333333  0.666667  0.000000  1
  Ta  Ta40  1  0.640747  0.640528  0.655494  1
  Ta  Ta41  1  0.359472  0.359253  0.344506  1
  Ta  Ta42  1  0.359472  0.000219  0.655494  1
  Ta  Ta43  1  0.999781  0.359253  0.655494  1
  Ta  Ta44  1  0.359472  0.000219  0.844506  1
  Ta  Ta45  1  0.999781  0.359253  0.844506  1
  Ta  Ta46  1  0.640747  0.640528  0.844506  1
  Ta  Ta47  1  0.999781  0.640528  0.155494  1
  Ta  Ta48  1  0.640747  0.000219  0.155494  1
  Ta  Ta49  1  0.640747  0.000219  0.344506  1
  Ta  Ta50  1  0.999781  0.640528  0.344506  1
  Ta  Ta51  1  0.359472  0.359253  0.155494  1
  Ta  Ta52  1  0.666667  0.333333  0.500000  1
  Ta  Ta53  1  0.666667  0.333333  0.000000  1
