# generated using pymatgen
data_DyTaO4
_symmetry_space_group_name_H-M   'P 1'
_cell_length_a   5.11211277
_cell_length_b   5.35820480
_cell_length_c   6.56579472
_cell_angle_alpha   111.92392305
_cell_angle_beta   110.66883595
_cell_angle_gamma   95.10852906
_symmetry_Int_Tables_number   1
_chemical_formula_structural   DyTaO4
_chemical_formula_sum   'Dy2 Ta2 O8'
_cell_volume   150.96656086
_cell_formula_units_Z   2
loop_
 _symmetry_equiv_pos_site_id
 _symmetry_equiv_pos_as_xyz
  1  'x, y, z'
loop_
 _atom_site_type_symbol
 _atom_site_label
 _atom_site_symmetry_multiplicity
 _atom_site_fract_x
 _atom_site_fract_y
 _atom_site_fract_z
 _atom_site_occupancy
  Dy  Dy0  1  0.380438  0.630438  0.760876  1
  Dy  Dy1  1  0.619562  0.369562  0.239124  1
  Ta  Ta2  1  0.853739  0.103739  0.707478  1
  Ta  Ta3  1  0.146261  0.896261  0.292522  1
  O  O4  1  0.568965  0.277257  0.563605  1
  O  O5  1  0.791822  0.631034  0.079961  1
  O  O6  1  0.431035  0.722743  0.436395  1
  O  O7  1  0.711861  0.051072  0.920039  1
  O  O8  1  0.994640  0.786348  0.563605  1
  O  O9  1  0.288139  0.948928  0.079961  1
  O  O10  1  0.208178  0.368966  0.920039  1
  O  O11  1  0.005360  0.213652  0.436395  1
