# generated using pymatgen
data_DyTaO4
_symmetry_space_group_name_H-M   'P 1'
_cell_length_a   5.15441023
_cell_length_b   5.34478806
_cell_length_c   5.51878802
_cell_angle_alpha   90.00000000
_cell_angle_beta   90.00000000
_cell_angle_gamma   96.57975790
_symmetry_Int_Tables_number   1
_chemical_formula_structural   DyTaO4
_chemical_formula_sum   'Dy2 Ta2 O8'
_cell_volume   151.03693251
_cell_formula_units_Z   2
loop_
 _symmetry_equiv_pos_site_id
 _symmetry_equiv_pos_as_xyz
  1  'x, y, z'
loop_
 _atom_site_type_symbol
 _atom_site_label
 _atom_site_symmetry_multiplicity
 _atom_site_fract_x
 _atom_site_fract_y
 _atom_site_fract_z
 _atom_site_occupancy
  O  O0  1  0.731323  0.004837  0.564517  1
  O  O1  1  0.268677  0.495163  0.564517  1
  O  O2  1  0.268677  0.995163  0.435483  1
  O  O3  1  0.731323  0.504837  0.435483  1
  O  O4  1  0.249570  0.600704  0.085702  1
  O  O5  1  0.750430  0.899296  0.085702  1
  O  O6  1  0.750430  0.399296  0.914298  1
  O  O7  1  0.249570  0.100704  0.914298  1
  Dy  Dy8  1  0.000000  0.750000  0.767089  1
  Dy  Dy9  1  0.000000  0.250000  0.232911  1
  Ta  Ta10  1  0.500000  0.250000  0.693009  1
  Ta  Ta11  1  0.500000  0.750000  0.306991  1
