# generated using pymatgen
data_DyVO4
_symmetry_space_group_name_H-M   'P 1'
_cell_length_a   6.00857080
_cell_length_b   6.00857080
_cell_length_c   6.00857080
_cell_angle_alpha   106.23686966
_cell_angle_beta   106.23686972
_cell_angle_gamma   116.15378717
_symmetry_Int_Tables_number   1
_chemical_formula_structural   DyVO4
_chemical_formula_sum   'Dy2 V2 O8'
_cell_volume   165.26747628
_cell_formula_units_Z   2
loop_
 _symmetry_equiv_pos_site_id
 _symmetry_equiv_pos_as_xyz
  1  'x, y, z'
loop_
 _atom_site_type_symbol
 _atom_site_label
 _atom_site_symmetry_multiplicity
 _atom_site_fract_x
 _atom_site_fract_y
 _atom_site_fract_z
 _atom_site_occupancy
  O  O0  1  0.801064  0.735837  0.434773  1
  O  O1  1  0.801064  0.366290  0.065227  1
  O  O2  1  0.264163  0.198936  0.065227  1
  O  O3  1  0.198936  0.633710  0.934773  1
  O  O4  1  0.198936  0.264163  0.565227  1
  O  O5  1  0.633710  0.198936  0.434773  1
  O  O6  1  0.366290  0.801064  0.565227  1
  O  O7  1  0.735837  0.801064  0.934773  1
  V  V8  1  0.625000  0.375000  0.250000  1
  V  V9  1  0.375000  0.625000  0.750000  1
  Dy  Dy10  1  0.875000  0.125000  0.750000  1
  Dy  Dy11  1  0.125000  0.875000  0.250000  1
