# generated using pymatgen
data_Dy2Zr8O19
_symmetry_space_group_name_H-M   'P 1'
_cell_length_a   3.64358934
_cell_length_b   36.41750623
_cell_length_c   34.73835116
_cell_angle_alpha   5.21073766
_cell_angle_beta   58.36990646
_cell_angle_gamma   59.98330085
_symmetry_Int_Tables_number   1
_chemical_formula_structural   Dy2Zr8O19
_chemical_formula_sum   'Dy2 Zr8 O19'
_cell_volume   341.69187222
_cell_formula_units_Z   1
loop_
 _symmetry_equiv_pos_site_id
 _symmetry_equiv_pos_as_xyz
  1  'x, y, z'
loop_
 _atom_site_type_symbol
 _atom_site_label
 _atom_site_symmetry_multiplicity
 _atom_site_fract_x
 _atom_site_fract_y
 _atom_site_fract_z
 _atom_site_occupancy
  Dy  Dy0  1  0.032084  0.025667  0.967916  1
  Dy  Dy1  1  0.967916  0.074333  0.032084  1
  Zr  Zr2  1  0.986106  0.188885  0.013894  1
  Zr  Zr3  1  0.990115  0.292092  0.009885  1
  Zr  Zr4  1  0.994513  0.395610  0.005487  1
  Zr  Zr5  1  0.998464  0.498772  0.001536  1
  Zr  Zr6  1  0.001536  0.601228  0.998464  1
  Zr  Zr7  1  0.009885  0.807908  0.990115  1
  Zr  Zr8  1  0.005487  0.704390  0.994513  1
  Zr  Zr9  1  0.013894  0.911115  0.986106  1
  O  O10  1  0.264870  0.011896  0.235130  1
  O  O11  1  0.222771  0.078217  0.277229  1
  O  O12  1  0.258860  0.207088  0.241140  1
  O  O13  1  0.250000  0.300000  0.250000  1
  O  O14  1  0.241140  0.392912  0.258860  1
  O  O15  1  0.277229  0.521783  0.222771  1
  O  O16  1  0.235130  0.588104  0.264870  1
  O  O17  1  0.786895  0.129516  0.713105  1
  O  O18  1  0.294804  0.735843  0.205196  1
  O  O19  1  0.737640  0.190112  0.762360  1
  O  O20  1  0.750000  0.300000  0.750000  1
  O  O21  1  0.205196  0.864157  0.294804  1
  O  O22  1  0.762360  0.409888  0.737640  1
  O  O23  1  0.713105  0.470484  0.786895  1
  O  O24  1  0.763288  0.610631  0.736712  1
  O  O25  1  0.735873  0.688698  0.764127  1
  O  O26  1  0.750000  0.800000  0.750000  1
  O  O27  1  0.764127  0.911302  0.735873  1
  O  O28  1  0.736712  0.989369  0.763288  1
