# generated using pymatgen
data_CdAu3
_symmetry_space_group_name_H-M   'P 1'
_cell_length_a   5.93837987
_cell_length_b   5.93837934
_cell_length_c   4.91187206
_cell_angle_alpha   90.00000000
_cell_angle_beta   90.00000000
_cell_angle_gamma   119.99999730
_symmetry_Int_Tables_number   1
_chemical_formula_structural   CdAu3
_chemical_formula_sum   'Cd2 Au6'
_cell_volume   150.00771719
_cell_formula_units_Z   2
loop_
 _symmetry_equiv_pos_site_id
 _symmetry_equiv_pos_as_xyz
  1  'x, y, z'
loop_
 _atom_site_type_symbol
 _atom_site_label
 _atom_site_symmetry_multiplicity
 _atom_site_fract_x
 _atom_site_fract_y
 _atom_site_fract_z
 _atom_site_occupancy
  Cd  Cd0  1  0.333333  0.666667  0.749998  1
  Cd  Cd1  1  0.666666  0.333332  0.249999  1
  Au  Au2  1  0.166323  0.332646  0.249999  1
  Au  Au3  1  0.667353  0.833676  0.249999  1
  Au  Au4  1  0.166324  0.833676  0.249999  1
  Au  Au5  1  0.833677  0.667353  0.749998  1
  Au  Au6  1  0.332649  0.166325  0.749998  1
  Au  Au7  1  0.833678  0.166325  0.749998  1
