# generated using pymatgen
data_DyB4Ru
_symmetry_space_group_name_H-M   'P 1'
_cell_length_a   5.96383429
_cell_length_b   11.53512766
_cell_length_c   3.55857927
_cell_angle_alpha   90.00007833
_cell_angle_beta   90.00001564
_cell_angle_gamma   89.99772393
_symmetry_Int_Tables_number   1
_chemical_formula_structural   DyB4Ru
_chemical_formula_sum   'Dy4 B16 Ru4'
_cell_volume   244.80744275
_cell_formula_units_Z   4
loop_
 _symmetry_equiv_pos_site_id
 _symmetry_equiv_pos_as_xyz
  1  'x, y, z'
loop_
 _atom_site_type_symbol
 _atom_site_label
 _atom_site_symmetry_multiplicity
 _atom_site_fract_x
 _atom_site_fract_y
 _atom_site_fract_z
 _atom_site_occupancy
  Dy  Dy0  1  0.128951  0.149868  0.000000  1
  Dy  Dy1  1  0.871066  0.850131  1.000000  1
  Dy  Dy2  1  0.628944  0.350157  0.000001  1
  Dy  Dy3  1  0.371065  0.649850  0.000000  1
  B  B4  1  0.476322  0.191740  0.500000  1
  B  B5  1  0.523671  0.808275  0.500000  1
  B  B6  1  0.976325  0.308259  0.500001  1
  B  B7  1  0.023674  0.691726  0.499999  1
  B  B8  1  0.289139  0.314511  0.500000  1
  B  B9  1  0.710859  0.685476  0.500000  1
  B  B10  1  0.789135  0.185488  0.500000  1
  B  B11  1  0.210862  0.814525  0.500001  1
  B  B12  1  0.364024  0.469668  0.500000  1
  B  B13  1  0.635973  0.530339  0.500000  1
  B  B14  1  0.864029  0.030328  0.500000  1
  B  B15  1  0.135972  0.969661  0.500000  1
  B  B16  1  0.387958  0.046759  0.500000  1
  B  B17  1  0.612029  0.953235  0.500000  1
  B  B18  1  0.887960  0.453238  0.500001  1
  B  B19  1  0.112032  0.546765  0.500000  1
  Ru  Ru20  1  0.140509  0.407346  0.000003  1
  Ru  Ru21  1  0.859492  0.592661  0.999998  1
  Ru  Ru22  1  0.640506  0.092642  1.000000  1
  Ru  Ru23  1  0.359502  0.907351  0.999999  1
