# generated using pymatgen
data_DyMn2O5
_symmetry_space_group_name_H-M   'P 1'
_cell_length_a   5.78798914
_cell_length_b   7.35505684
_cell_length_c   8.56931826
_cell_angle_alpha   90.00000000
_cell_angle_beta   90.00000000
_cell_angle_gamma   90.00000000
_symmetry_Int_Tables_number   1
_chemical_formula_structural   DyMn2O5
_chemical_formula_sum   'Dy4 Mn8 O20'
_cell_volume   364.80435436
_cell_formula_units_Z   4
loop_
 _symmetry_equiv_pos_site_id
 _symmetry_equiv_pos_as_xyz
  1  'x, y, z'
loop_
 _atom_site_type_symbol
 _atom_site_label
 _atom_site_symmetry_multiplicity
 _atom_site_fract_x
 _atom_site_fract_y
 _atom_site_fract_z
 _atom_site_occupancy
  O  O0  1  0.240240  0.892976  0.293102  1
  O  O1  1  0.240240  0.107024  0.706898  1
  O  O2  1  0.759760  0.392976  0.206898  1
  O  O3  1  0.759760  0.607024  0.793102  1
  O  O4  1  0.759760  0.107024  0.706898  1
  O  O5  1  0.759760  0.892976  0.293102  1
  O  O6  1  0.240240  0.607024  0.793102  1
  O  O7  1  0.240240  0.392976  0.206898  1
  O  O8  1  0.500000  0.349160  0.930156  1
  O  O9  1  0.500000  0.650840  0.069844  1
  O  O10  1  0.500000  0.849160  0.569844  1
  O  O11  1  0.500000  0.150840  0.430156  1
  O  O12  1  0.270226  0.000000  0.000000  1
  O  O13  1  0.729774  0.500000  0.500000  1
  O  O14  1  0.729774  0.000000  0.000000  1
  O  O15  1  0.270226  0.500000  0.500000  1
  O  O16  1  0.000000  0.163668  0.442612  1
  O  O17  1  0.000000  0.836332  0.557388  1
  O  O18  1  0.000000  0.663668  0.057388  1
  O  O19  1  0.000000  0.336332  0.942612  1
  Mn  Mn20  1  0.500000  0.088545  0.848462  1
  Mn  Mn21  1  0.500000  0.911455  0.151538  1
  Mn  Mn22  1  0.500000  0.588545  0.651538  1
  Mn  Mn23  1  0.500000  0.411455  0.348462  1
  Mn  Mn24  1  0.253598  0.500000  0.000000  1
  Mn  Mn25  1  0.746402  0.000000  0.500000  1
  Mn  Mn26  1  0.746402  0.500000  0.000000  1
  Mn  Mn27  1  0.253598  0.000000  0.500000  1
  Dy  Dy28  1  0.000000  0.362338  0.670562  1
  Dy  Dy29  1  0.000000  0.637662  0.329438  1
  Dy  Dy30  1  0.000000  0.862338  0.829438  1
  Dy  Dy31  1  0.000000  0.137662  0.170562  1
