# generated using pymatgen
data_Cd(CoO2)2
_symmetry_space_group_name_H-M   'P 1'
_cell_length_a   5.93816050
_cell_length_b   6.00455616
_cell_length_c   5.93816050
_cell_angle_alpha   60.36511591
_cell_angle_beta   90.00000000
_cell_angle_gamma   119.63488409
_symmetry_Int_Tables_number   1
_chemical_formula_structural   Cd(CoO2)2
_chemical_formula_sum   'Cd2 Co4 O8'
_cell_volume   151.35394870
_cell_formula_units_Z   2
loop_
 _symmetry_equiv_pos_site_id
 _symmetry_equiv_pos_as_xyz
  1  'x, y, z'
loop_
 _atom_site_type_symbol
 _atom_site_label
 _atom_site_symmetry_multiplicity
 _atom_site_fract_x
 _atom_site_fract_y
 _atom_site_fract_z
 _atom_site_occupancy
  Cd  Cd0  1  0.000000  0.000000  0.000000  1
  Cd  Cd1  1  0.750000  0.500000  0.750000  1
  Co  Co2  1  0.375000  0.250000  0.375000  1
  Co  Co3  1  0.875000  0.250000  0.375000  1
  Co  Co4  1  0.375000  0.750000  0.375000  1
  Co  Co5  1  0.375000  0.750000  0.875000  1
  O  O6  1  0.149031  0.298062  0.140333  1
  O  O7  1  0.600969  0.201938  0.188394  1
  O  O8  1  0.561606  0.701938  0.149031  1
  O  O9  1  0.140333  0.701938  0.149031  1
  O  O10  1  0.600969  0.201938  0.609667  1
  O  O11  1  0.149031  0.298062  0.561606  1
  O  O12  1  0.188394  0.798062  0.600969  1
  O  O13  1  0.609667  0.798062  0.600969  1
