# generated using pymatgen
data_Dy2W2O9
_symmetry_space_group_name_H-M   'P 1'
_cell_length_a   7.41321327
_cell_length_b   7.11878250
_cell_length_c   6.72517380
_cell_angle_alpha   97.05816104
_cell_angle_beta   95.20045606
_cell_angle_gamma   70.34764470
_symmetry_Int_Tables_number   1
_chemical_formula_structural   Dy2W2O9
_chemical_formula_sum   'Dy4 W4 O18'
_cell_volume   331.23981308
_cell_formula_units_Z   2
loop_
 _symmetry_equiv_pos_site_id
 _symmetry_equiv_pos_as_xyz
  1  'x, y, z'
loop_
 _atom_site_type_symbol
 _atom_site_label
 _atom_site_symmetry_multiplicity
 _atom_site_fract_x
 _atom_site_fract_y
 _atom_site_fract_z
 _atom_site_occupancy
  Dy  Dy0  1  0.154861  0.259316  0.847639  1
  Dy  Dy1  1  0.378248  0.282487  0.383587  1
  Dy  Dy2  1  0.621752  0.717513  0.616413  1
  Dy  Dy3  1  0.845139  0.740684  0.152361  1
  W  W4  1  0.056889  0.734477  0.728859  1
  W  W5  1  0.366220  0.791247  0.158779  1
  W  W6  1  0.633780  0.208753  0.841221  1
  W  W7  1  0.943111  0.265523  0.271141  1
  O  O8  1  0.094163  0.230545  0.505128  1
  O  O9  1  0.209817  0.067532  0.144497  1
  O  O10  1  0.091409  0.428997  0.184681  1
  O  O11  1  0.248680  0.496385  0.667346  1
  O  O12  1  0.140790  0.733717  0.035221  1
  O  O13  1  0.168864  0.929248  0.736213  1
  O  O14  1  0.462989  0.086658  0.684202  1
  O  O15  1  0.378358  0.639455  0.365823  1
  O  O16  1  0.462144  0.303819  0.040287  1
  O  O17  1  0.537856  0.696181  0.959713  1
  O  O18  1  0.621642  0.360545  0.634177  1
  O  O19  1  0.537011  0.913342  0.315798  1
  O  O20  1  0.831136  0.070752  0.263787  1
  O  O21  1  0.859210  0.266283  0.964779  1
  O  O22  1  0.751320  0.503615  0.332654  1
  O  O23  1  0.908591  0.571003  0.815319  1
  O  O24  1  0.790183  0.932468  0.855503  1
  O  O25  1  0.905837  0.769455  0.494872  1
