# generated using pymatgen
data_Dy2(WO4)3
_symmetry_space_group_name_H-M   'P 1'
_cell_length_a   6.92719507
_cell_length_b   6.92719502
_cell_length_c   11.40896609
_cell_angle_alpha   100.76514669
_cell_angle_beta   100.76514661
_cell_angle_gamma   111.87546687
_symmetry_Int_Tables_number   1
_chemical_formula_structural   Dy2(WO4)3
_chemical_formula_sum   'Dy4 W6 O24'
_cell_volume   478.96736191
_cell_formula_units_Z   2
loop_
 _symmetry_equiv_pos_site_id
 _symmetry_equiv_pos_as_xyz
  1  'x, y, z'
loop_
 _atom_site_type_symbol
 _atom_site_label
 _atom_site_symmetry_multiplicity
 _atom_site_fract_x
 _atom_site_fract_y
 _atom_site_fract_z
 _atom_site_occupancy
  O  O0  1  0.529292  0.106408  0.426308  1
  O  O1  1  0.393593  0.970708  0.073693  1
  O  O2  1  0.470708  0.893592  0.573693  1
  O  O3  1  0.606408  0.029292  0.926307  1
  O  O4  1  0.667043  0.730142  0.061244  1
  O  O5  1  0.769858  0.832957  0.438756  1
  O  O6  1  0.332956  0.269858  0.938756  1
  O  O7  1  0.230142  0.167043  0.561243  1
  O  O8  1  0.099953  0.958406  0.298108  1
  O  O9  1  0.541593  0.400046  0.201892  1
  O  O10  1  0.660544  0.577346  0.605158  1
  O  O11  1  0.922653  0.839456  0.894842  1
  O  O12  1  0.339455  0.422654  0.394842  1
  O  O13  1  0.077347  0.160545  0.105158  1
  O  O14  1  0.129240  0.708697  0.720378  1
  O  O15  1  0.791303  0.370759  0.779622  1
  O  O16  1  0.870759  0.291303  0.279622  1
  O  O17  1  0.900047  0.041594  0.701892  1
  O  O18  1  0.920234  0.318947  0.540015  1
  O  O19  1  0.181053  0.579766  0.959985  1
  O  O20  1  0.079766  0.681053  0.459986  1
  O  O21  1  0.818948  0.420234  0.040015  1
  O  O22  1  0.458406  0.599954  0.798108  1
  O  O23  1  0.208697  0.629241  0.220377  1
  Dy  Dy24  1  0.288231  0.541759  0.592800  1
  Dy  Dy25  1  0.958241  0.211769  0.907201  1
  Dy  Dy26  1  0.711769  0.458241  0.407201  1
  Dy  Dy27  1  0.041759  0.788231  0.092799  1
  W  W28  1  0.868241  0.631759  0.750000  1
  W  W29  1  0.131760  0.368241  0.250000  1
  W  W30  1  0.459853  0.746845  0.949917  1
  W  W31  1  0.753155  0.040148  0.550082  1
  W  W32  1  0.540147  0.253155  0.050082  1
  W  W33  1  0.246844  0.959852  0.449917  1
