# generated using pymatgen
data_Dy2Zr2O7
_symmetry_space_group_name_H-M   'P 1'
_cell_length_a   3.61278921
_cell_length_b   14.91235385
_cell_length_c   12.87155011
_cell_angle_alpha   30.32824004
_cell_angle_beta   55.85006750
_cell_angle_gamma   61.01789435
_symmetry_Int_Tables_number   1
_chemical_formula_structural   Dy2Zr2O7
_chemical_formula_sum   'Dy4 Zr4 O14'
_cell_volume   289.78521280
_cell_formula_units_Z   2
loop_
 _symmetry_equiv_pos_site_id
 _symmetry_equiv_pos_as_xyz
  1  'x, y, z'
loop_
 _atom_site_type_symbol
 _atom_site_label
 _atom_site_symmetry_multiplicity
 _atom_site_fract_x
 _atom_site_fract_y
 _atom_site_fract_z
 _atom_site_occupancy
  Dy  Dy0  1  0.000000  0.250000  0.000000  1
  Dy  Dy1  1  0.950675  0.000000  0.524663  1
  Dy  Dy2  1  0.000000  0.750000  0.500000  1
  Dy  Dy3  1  0.049325  0.500000  0.475337  1
  Zr  Zr4  1  0.010339  0.000000  0.994830  1
  Zr  Zr5  1  0.989661  0.500000  0.005170  1
  Zr  Zr6  1  0.000000  0.750000  0.000000  1
  Zr  Zr7  1  0.000000  0.250000  0.500000  1
  O  O8  1  0.241565  0.000000  0.129217  1
  O  O9  1  0.240320  0.207063  0.172777  1
  O  O10  1  0.265248  0.500000  0.117376  1
  O  O11  1  0.220656  0.000000  0.639672  1
  O  O12  1  0.262989  0.769553  0.098953  1
  O  O13  1  0.262989  0.230447  0.638058  1
  O  O14  1  0.737011  0.269553  0.361942  1
  O  O15  1  0.779344  0.500000  0.360328  1
  O  O16  1  0.240320  0.792937  0.586904  1
  O  O17  1  0.759680  0.292937  0.827223  1
  O  O18  1  0.759680  0.707063  0.413096  1
  O  O19  1  0.758435  0.500000  0.870783  1
  O  O20  1  0.737011  0.730447  0.901047  1
  O  O21  1  0.734752  0.000000  0.882624  1
