# generated using pymatgen
data_Dy5(ReO6)2
_symmetry_space_group_name_H-M   'P 1'
_cell_length_a   6.84440731
_cell_length_b   7.56613099
_cell_length_c   5.66871408
_cell_angle_alpha   90.00000000
_cell_angle_beta   65.53653437
_cell_angle_gamma   106.20831375
_symmetry_Int_Tables_number   1
_chemical_formula_structural   Dy5(ReO6)2
_chemical_formula_sum   'Dy5 Re2 O12'
_cell_volume   254.32999005
_cell_formula_units_Z   1
loop_
 _symmetry_equiv_pos_site_id
 _symmetry_equiv_pos_as_xyz
  1  'x, y, z'
loop_
 _atom_site_type_symbol
 _atom_site_label
 _atom_site_symmetry_multiplicity
 _atom_site_fract_x
 _atom_site_fract_y
 _atom_site_fract_z
 _atom_site_occupancy
  Dy  Dy0  1  0.105881  0.636086  0.697059  1
  Dy  Dy1  1  0.126695  0.170189  0.686653  1
  Dy  Dy2  1  0.499029  0.493378  0.000485  1
  Dy  Dy3  1  0.891872  0.352643  0.304064  1
  Dy  Dy4  1  0.871226  0.818831  0.314387  1
  Re  Re5  1  0.498570  0.993380  0.215232  1
  Re  Re6  1  0.498570  0.993380  0.786198  1
  O  O7  1  0.168021  0.908975  0.911957  1
  O  O8  1  0.168021  0.908975  0.420023  1
  O  O9  1  0.190757  0.420827  0.406705  1
  O  O10  1  0.190757  0.420827  0.902537  1
  O  O11  1  0.492538  0.197815  0.003730  1
  O  O12  1  0.499328  0.169316  0.500336  1
  O  O13  1  0.498032  0.817279  0.500984  1
  O  O14  1  0.502962  0.788361  0.998519  1
  O  O15  1  0.829075  0.078789  0.581947  1
  O  O16  1  0.829075  0.078789  0.088977  1
  O  O17  1  0.807239  0.567578  0.594176  1
  O  O18  1  0.807239  0.567578  0.098585  1
