# generated using pymatgen
data_Dy2Cu2O5
_symmetry_space_group_name_H-M   'P 1'
_cell_length_a   6.26829495
_cell_length_b   11.21290685
_cell_length_c   7.19793830
_cell_angle_alpha   90.00000000
_cell_angle_beta   90.00000000
_cell_angle_gamma   90.00000000
_symmetry_Int_Tables_number   1
_chemical_formula_structural   Dy2Cu2O5
_chemical_formula_sum   'Dy8 Cu8 O20'
_cell_volume   505.91290491
_cell_formula_units_Z   4
loop_
 _symmetry_equiv_pos_site_id
 _symmetry_equiv_pos_as_xyz
  1  'x, y, z'
loop_
 _atom_site_type_symbol
 _atom_site_label
 _atom_site_symmetry_multiplicity
 _atom_site_fract_x
 _atom_site_fract_y
 _atom_site_fract_z
 _atom_site_occupancy
  Dy  Dy0  1  0.249941  0.522737  0.880564  1
  Dy  Dy1  1  0.249941  0.977263  0.880564  1
  Dy  Dy2  1  0.250059  0.022737  0.380564  1
  Dy  Dy3  1  0.250059  0.477263  0.380564  1
  Dy  Dy4  1  0.749941  0.522737  0.619436  1
  Dy  Dy5  1  0.749941  0.977263  0.619436  1
  Dy  Dy6  1  0.750059  0.022737  0.119436  1
  Dy  Dy7  1  0.750059  0.477263  0.119436  1
  Cu  Cu8  1  0.072169  0.250000  0.148876  1
  Cu  Cu9  1  0.086600  0.250000  0.627821  1
  Cu  Cu10  1  0.413400  0.750000  0.127821  1
  Cu  Cu11  1  0.427831  0.750000  0.648876  1
  Cu  Cu12  1  0.572169  0.250000  0.351124  1
  Cu  Cu13  1  0.586600  0.250000  0.872179  1
  Cu  Cu14  1  0.913400  0.750000  0.372179  1
  Cu  Cu15  1  0.927831  0.750000  0.851124  1
  O  O16  1  0.069128  0.085527  0.643790  1
  O  O17  1  0.069128  0.414473  0.643790  1
  O  O18  1  0.097508  0.087976  0.112885  1
  O  O19  1  0.097508  0.412024  0.112885  1
  O  O20  1  0.253655  0.250000  0.380891  1
  O  O21  1  0.246345  0.750000  0.880891  1
  O  O22  1  0.402492  0.912024  0.612885  1
  O  O23  1  0.402492  0.587976  0.612885  1
  O  O24  1  0.430872  0.914473  0.143790  1
  O  O25  1  0.430872  0.585527  0.143790  1
  O  O26  1  0.569128  0.085527  0.856210  1
  O  O27  1  0.569128  0.414473  0.856210  1
  O  O28  1  0.597508  0.087976  0.387115  1
  O  O29  1  0.597508  0.412024  0.387115  1
  O  O30  1  0.753655  0.250000  0.119109  1
  O  O31  1  0.746345  0.750000  0.619109  1
  O  O32  1  0.902492  0.587976  0.887115  1
  O  O33  1  0.902492  0.912024  0.887115  1
  O  O34  1  0.930872  0.585527  0.356210  1
  O  O35  1  0.930872  0.914473  0.356210  1
