# generated using pymatgen
data_Dy2Fe14B
_symmetry_space_group_name_H-M   'P 1'
_cell_length_a   8.73004830
_cell_length_b   8.73004830
_cell_length_c   11.89953841
_cell_angle_alpha   90.00000000
_cell_angle_beta   90.00000000
_cell_angle_gamma   90.00000000
_symmetry_Int_Tables_number   1
_chemical_formula_structural   Dy2Fe14B
_chemical_formula_sum   'Dy8 Fe56 B4'
_cell_volume   906.90836601
_cell_formula_units_Z   4
loop_
 _symmetry_equiv_pos_site_id
 _symmetry_equiv_pos_as_xyz
  1  'x, y, z'
loop_
 _atom_site_type_symbol
 _atom_site_label
 _atom_site_symmetry_multiplicity
 _atom_site_fract_x
 _atom_site_fract_y
 _atom_site_fract_z
 _atom_site_occupancy
  B  B0  1  0.624535  0.375465  0.000000  1
  B  B1  1  0.124535  0.124535  0.500000  1
  B  B2  1  0.875465  0.875465  0.500000  1
  B  B3  1  0.375465  0.624535  0.000000  1
  Fe  Fe4  1  0.500000  0.000000  0.000000  1
  Fe  Fe5  1  0.500000  0.000000  0.500000  1
  Fe  Fe6  1  0.000000  0.500000  0.500000  1
  Fe  Fe7  1  0.000000  0.500000  0.000000  1
  Fe  Fe8  1  0.500000  0.500000  0.884104  1
  Fe  Fe9  1  0.000000  0.000000  0.384104  1
  Fe  Fe10  1  0.000000  0.000000  0.615896  1
  Fe  Fe11  1  0.500000  0.500000  0.115896  1
  Fe  Fe12  1  0.682855  0.682855  0.754141  1
  Fe  Fe13  1  0.317145  0.317145  0.754141  1
  Fe  Fe14  1  0.682855  0.682855  0.245859  1
  Fe  Fe15  1  0.182855  0.817145  0.254141  1
  Fe  Fe16  1  0.817145  0.182855  0.254141  1
  Fe  Fe17  1  0.817145  0.182855  0.745859  1
  Fe  Fe18  1  0.182855  0.817145  0.745859  1
  Fe  Fe19  1  0.317145  0.317145  0.245859  1
  Fe  Fe20  1  0.902677  0.902677  0.799590  1
  Fe  Fe21  1  0.097323  0.097323  0.799590  1
  Fe  Fe22  1  0.902677  0.902677  0.200410  1
  Fe  Fe23  1  0.402677  0.597323  0.299590  1
  Fe  Fe24  1  0.597323  0.402677  0.299590  1
  Fe  Fe25  1  0.597323  0.402677  0.700410  1
  Fe  Fe26  1  0.402677  0.597323  0.700410  1
  Fe  Fe27  1  0.097323  0.097323  0.200410  1
  Fe  Fe28  1  0.358864  0.037040  0.174709  1
  Fe  Fe29  1  0.641136  0.962960  0.174709  1
  Fe  Fe30  1  0.037040  0.358864  0.825291  1
  Fe  Fe31  1  0.537040  0.141136  0.674709  1
  Fe  Fe32  1  0.462960  0.858864  0.674709  1
  Fe  Fe33  1  0.141136  0.537040  0.325291  1
  Fe  Fe34  1  0.858864  0.462960  0.325291  1
  Fe  Fe35  1  0.962960  0.641136  0.825291  1
  Fe  Fe36  1  0.641136  0.962960  0.825291  1
  Fe  Fe37  1  0.358864  0.037040  0.825291  1
  Fe  Fe38  1  0.962960  0.641136  0.174709  1
  Fe  Fe39  1  0.462960  0.858864  0.325291  1
  Fe  Fe40  1  0.537040  0.141136  0.325291  1
  Fe  Fe41  1  0.858864  0.462960  0.674709  1
  Fe  Fe42  1  0.141136  0.537040  0.674709  1
  Fe  Fe43  1  0.037040  0.358864  0.174709  1
  Fe  Fe44  1  0.566244  0.224482  0.126222  1
  Fe  Fe45  1  0.433756  0.775518  0.126222  1
  Fe  Fe46  1  0.224482  0.566244  0.873778  1
  Fe  Fe47  1  0.724482  0.933756  0.626222  1
  Fe  Fe48  1  0.275518  0.066244  0.626222  1
  Fe  Fe49  1  0.933756  0.724482  0.373778  1
  Fe  Fe50  1  0.066244  0.275518  0.373778  1
  Fe  Fe51  1  0.775518  0.433756  0.873778  1
  Fe  Fe52  1  0.433756  0.775518  0.873778  1
  Fe  Fe53  1  0.566244  0.224482  0.873778  1
  Fe  Fe54  1  0.775518  0.433756  0.126222  1
  Fe  Fe55  1  0.275518  0.066244  0.373778  1
  Fe  Fe56  1  0.724482  0.933756  0.373778  1
  Fe  Fe57  1  0.066244  0.275518  0.626222  1
  Fe  Fe58  1  0.933756  0.724482  0.626222  1
  Fe  Fe59  1  0.224482  0.566244  0.126222  1
  Dy  Dy60  1  0.856431  0.143569  0.000000  1
  Dy  Dy61  1  0.356431  0.356431  0.500000  1
  Dy  Dy62  1  0.643569  0.643569  0.500000  1
  Dy  Dy63  1  0.143569  0.856431  0.000000  1
  Dy  Dy64  1  0.732805  0.732805  0.000000  1
  Dy  Dy65  1  0.767195  0.232805  0.500000  1
  Dy  Dy66  1  0.232805  0.767195  0.500000  1
  Dy  Dy67  1  0.267195  0.267195  0.000000  1
