# generated using pymatgen
data_Dy2Fe14C
_symmetry_space_group_name_H-M   'P 1'
_cell_length_a   8.72492313
_cell_length_b   8.72492313
_cell_length_c   11.71535477
_cell_angle_alpha   90.00000000
_cell_angle_beta   90.00000000
_cell_angle_gamma   90.00000000
_symmetry_Int_Tables_number   1
_chemical_formula_structural   Dy2Fe14C
_chemical_formula_sum   'Dy8 Fe56 C4'
_cell_volume   891.82298927
_cell_formula_units_Z   4
loop_
 _symmetry_equiv_pos_site_id
 _symmetry_equiv_pos_as_xyz
  1  'x, y, z'
loop_
 _atom_site_type_symbol
 _atom_site_label
 _atom_site_symmetry_multiplicity
 _atom_site_fract_x
 _atom_site_fract_y
 _atom_site_fract_z
 _atom_site_occupancy
  Dy  Dy0  1  0.355713  0.355713  0.500000  1
  Dy  Dy1  1  0.644287  0.644287  0.500000  1
  Dy  Dy2  1  0.241075  0.758925  0.500000  1
  Dy  Dy3  1  0.758925  0.241075  0.500000  1
  Dy  Dy4  1  0.258925  0.258925  0.000000  1
  Dy  Dy5  1  0.855713  0.144287  0.000000  1
  Dy  Dy6  1  0.741075  0.741075  0.000000  1
  Dy  Dy7  1  0.144287  0.855713  0.000000  1
  Fe  Fe8  1  0.225538  0.563980  0.879752  1
  Fe  Fe9  1  0.464657  0.857922  0.675382  1
  Fe  Fe10  1  0.936020  0.725538  0.379752  1
  Fe  Fe11  1  0.596989  0.403011  0.296145  1
  Fe  Fe12  1  0.684592  0.684592  0.754609  1
  Fe  Fe13  1  0.436020  0.774462  0.879752  1
  Fe  Fe14  1  0.684592  0.684592  0.245391  1
  Fe  Fe15  1  0.964657  0.642078  0.175382  1
  Fe  Fe16  1  0.142078  0.535343  0.675382  1
  Fe  Fe17  1  0.063980  0.274462  0.620248  1
  Fe  Fe18  1  0.500000  0.500000  0.108065  1
  Fe  Fe19  1  0.642078  0.964657  0.824618  1
  Fe  Fe20  1  0.725538  0.936020  0.620248  1
  Fe  Fe21  1  0.035343  0.357922  0.824618  1
  Fe  Fe22  1  0.142078  0.535343  0.324618  1
  Fe  Fe23  1  0.315408  0.315408  0.754609  1
  Fe  Fe24  1  0.857922  0.464657  0.324618  1
  Fe  Fe25  1  0.903011  0.903011  0.796145  1
  Fe  Fe26  1  0.815408  0.184592  0.254609  1
  Fe  Fe27  1  0.774462  0.436020  0.120248  1
  Fe  Fe28  1  0.596989  0.403011  0.703855  1
  Fe  Fe29  1  0.274462  0.063980  0.379752  1
  Fe  Fe30  1  0.500000  0.500000  0.891935  1
  Fe  Fe31  1  0.357922  0.035343  0.824618  1
  Fe  Fe32  1  0.403011  0.596989  0.296145  1
  Fe  Fe33  1  0.964657  0.642078  0.824618  1
  Fe  Fe34  1  0.225538  0.563980  0.120248  1
  Fe  Fe35  1  0.000000  0.000000  0.608065  1
  Fe  Fe36  1  0.357922  0.035343  0.175382  1
  Fe  Fe37  1  0.274462  0.063980  0.620248  1
  Fe  Fe38  1  0.857922  0.464657  0.675382  1
  Fe  Fe39  1  0.563980  0.225538  0.120248  1
  Fe  Fe40  1  0.563980  0.225538  0.879752  1
  Fe  Fe41  1  0.903011  0.903011  0.203855  1
  Fe  Fe42  1  0.096989  0.096989  0.796145  1
  Fe  Fe43  1  0.184592  0.815408  0.254609  1
  Fe  Fe44  1  0.464657  0.857922  0.324618  1
  Fe  Fe45  1  0.000000  0.500000  0.500000  1
  Fe  Fe46  1  0.725538  0.936020  0.379752  1
  Fe  Fe47  1  0.774462  0.436020  0.879752  1
  Fe  Fe48  1  0.000000  0.000000  0.391935  1
  Fe  Fe49  1  0.500000  0.000000  0.500000  1
  Fe  Fe50  1  0.315408  0.315408  0.245391  1
  Fe  Fe51  1  0.063980  0.274462  0.379752  1
  Fe  Fe52  1  0.436020  0.774462  0.120248  1
  Fe  Fe53  1  0.642078  0.964657  0.175382  1
  Fe  Fe54  1  0.535343  0.142078  0.675382  1
  Fe  Fe55  1  0.096989  0.096989  0.203855  1
  Fe  Fe56  1  0.035343  0.357922  0.175382  1
  Fe  Fe57  1  0.000000  0.500000  0.000000  1
  Fe  Fe58  1  0.535343  0.142078  0.324618  1
  Fe  Fe59  1  0.184592  0.815408  0.745391  1
  Fe  Fe60  1  0.936020  0.725538  0.620248  1
  Fe  Fe61  1  0.403011  0.596989  0.703855  1
  Fe  Fe62  1  0.815408  0.184592  0.745391  1
  Fe  Fe63  1  0.500000  0.000000  0.000000  1
  C  C64  1  0.627076  0.372924  0.000000  1
  C  C65  1  0.127076  0.127076  0.500000  1
  C  C66  1  0.372924  0.627076  0.000000  1
  C  C67  1  0.872924  0.872924  0.500000  1
