# generated using pymatgen
data_Dy2MoO6
_symmetry_space_group_name_H-M   'P 1'
_cell_length_a   5.40324563
_cell_length_b   9.95578363
_cell_length_c   9.95578326
_cell_angle_alpha   68.03213547
_cell_angle_beta   75.00937644
_cell_angle_gamma   75.00937700
_symmetry_Int_Tables_number   1
_chemical_formula_structural   Dy2MoO6
_chemical_formula_sum   'Dy8 Mo4 O24'
_cell_volume   471.86942353
_cell_formula_units_Z   4
loop_
 _symmetry_equiv_pos_site_id
 _symmetry_equiv_pos_as_xyz
  1  'x, y, z'
loop_
 _atom_site_type_symbol
 _atom_site_label
 _atom_site_symmetry_multiplicity
 _atom_site_fract_x
 _atom_site_fract_y
 _atom_site_fract_z
 _atom_site_occupancy
  Dy  Dy0  1  0.378591  0.216279  0.448136  1
  Dy  Dy1  1  0.121409  0.551864  0.783721  1
  Dy  Dy2  1  0.621409  0.783721  0.551864  1
  Dy  Dy3  1  0.878591  0.448136  0.216279  1
  Dy  Dy4  1  0.250000  0.136043  0.863957  1
  Dy  Dy5  1  0.750000  0.863957  0.136043  1
  Dy  Dy6  1  0.250000  0.606903  0.393097  1
  Dy  Dy7  1  0.750000  0.393097  0.606903  1
  Mo  Mo8  1  0.060292  0.011869  0.295869  1
  Mo  Mo9  1  0.439708  0.704131  0.988131  1
  Mo  Mo10  1  0.939708  0.988131  0.704131  1
  Mo  Mo11  1  0.560292  0.295869  0.011869  1
  O  O12  1  0.921731  0.573448  0.608965  1
  O  O13  1  0.578269  0.391035  0.426552  1
  O  O14  1  0.078269  0.426552  0.391035  1
  O  O15  1  0.421731  0.608965  0.573448  1
  O  O16  1  0.917344  0.807875  0.336915  1
  O  O17  1  0.582656  0.663085  0.192125  1
  O  O18  1  0.082656  0.192125  0.663085  1
  O  O19  1  0.417344  0.336915  0.807875  1
  O  O20  1  0.370995  0.883948  0.326670  1
  O  O21  1  0.129005  0.673330  0.116052  1
  O  O22  1  0.629005  0.116052  0.673330  1
  O  O23  1  0.870995  0.326670  0.883948  1
  O  O24  1  0.636583  0.289842  0.183106  1
  O  O25  1  0.863417  0.816894  0.710158  1
  O  O26  1  0.363417  0.710158  0.816894  1
  O  O27  1  0.136583  0.183106  0.289842  1
  O  O28  1  0.514636  0.109959  0.048966  1
  O  O29  1  0.985364  0.951034  0.890041  1
  O  O30  1  0.485364  0.890041  0.951034  1
  O  O31  1  0.014636  0.048966  0.109959  1
  O  O32  1  0.254161  0.431016  0.025186  1
  O  O33  1  0.245839  0.974814  0.568984  1
  O  O34  1  0.745839  0.568984  0.974814  1
  O  O35  1  0.754161  0.025186  0.431016  1
