# generated using pymatgen
data_Dy2Ti2O7
_symmetry_space_group_name_H-M   'P 1'
_cell_length_a   7.54585441
_cell_length_b   13.21178117
_cell_length_c   5.35245978
_cell_angle_alpha   90.00000000
_cell_angle_beta   90.00000000
_cell_angle_gamma   98.32226627
_symmetry_Int_Tables_number   1
_chemical_formula_structural   Dy2Ti2O7
_chemical_formula_sum   'Dy8 Ti8 O28'
_cell_volume   527.98996457
_cell_formula_units_Z   4
loop_
 _symmetry_equiv_pos_site_id
 _symmetry_equiv_pos_as_xyz
  1  'x, y, z'
loop_
 _atom_site_type_symbol
 _atom_site_label
 _atom_site_symmetry_multiplicity
 _atom_site_fract_x
 _atom_site_fract_y
 _atom_site_fract_z
 _atom_site_occupancy
  Dy  Dy0  1  0.233407  0.922932  0.773544  1
  Dy  Dy1  1  0.142191  0.562988  0.360770  1
  Dy  Dy2  1  0.285512  0.133755  0.247516  1
  Dy  Dy3  1  0.354348  0.384199  0.780037  1
  Dy  Dy4  1  0.645652  0.615801  0.280037  1
  Dy  Dy5  1  0.714488  0.866245  0.747516  1
  Dy  Dy6  1  0.857809  0.437012  0.860770  1
  Dy  Dy7  1  0.766593  0.077068  0.273544  1
  Ti  Ti8  1  0.069553  0.320649  0.284672  1
  Ti  Ti9  1  0.030739  0.121441  0.769926  1
  Ti  Ti10  1  0.410183  0.672276  0.795098  1
  Ti  Ti11  1  0.470261  0.875306  0.268103  1
  Ti  Ti12  1  0.529739  0.124694  0.768103  1
  Ti  Ti13  1  0.589817  0.327724  0.295098  1
  Ti  Ti14  1  0.969261  0.878559  0.269926  1
  Ti  Ti15  1  0.930447  0.679351  0.784672  1
  O  O16  1  0.011413  0.179007  0.433915  1
  O  O17  1  0.072590  0.407650  0.563088  1
  O  O18  1  0.172631  0.686701  0.671979  1
  O  O19  1  0.220814  0.882474  0.349927  1
  O  O20  1  0.138501  0.430685  0.067238  1
  O  O21  1  0.060517  0.025062  0.041023  1
  O  O22  1  0.130152  0.232594  0.952835  1
  O  O23  1  0.364943  0.616003  0.095431  1
  O  O24  1  0.423886  0.822271  0.932435  1
  O  O25  1  0.327227  0.305844  0.379814  1
  O  O26  1  0.271827  0.088555  0.651451  1
  O  O27  1  0.412018  0.553758  0.587960  1
  O  O28  1  0.547064  0.973705  0.538913  1
  O  O29  1  0.515541  0.765104  0.452666  1
  O  O30  1  0.484459  0.234896  0.952666  1
  O  O31  1  0.452936  0.026295  0.038913  1
  O  O32  1  0.587982  0.446242  0.087960  1
  O  O33  1  0.728173  0.911444  0.151451  1
  O  O34  1  0.672773  0.694156  0.879814  1
  O  O35  1  0.576114  0.177729  0.432435  1
  O  O36  1  0.635057  0.383997  0.595431  1
  O  O37  1  0.869848  0.767406  0.452835  1
  O  O38  1  0.939483  0.974938  0.541023  1
  O  O39  1  0.861499  0.569315  0.567238  1
  O  O40  1  0.779186  0.117526  0.849927  1
  O  O41  1  0.827369  0.313299  0.171979  1
  O  O42  1  0.927410  0.592350  0.063088  1
  O  O43  1  0.988587  0.820993  0.933915  1
