# generated using pymatgen
data_Dy2WO6
_symmetry_space_group_name_H-M   'P 1'
_cell_length_a   5.40824739
_cell_length_b   9.89402100
_cell_length_c   9.89402100
_cell_angle_alpha   68.40722719
_cell_angle_beta   75.81729221
_cell_angle_gamma   75.81729221
_symmetry_Int_Tables_number   1
_chemical_formula_structural   Dy2WO6
_chemical_formula_sum   'Dy8 W4 O24'
_cell_volume   470.17072286
_cell_formula_units_Z   4
loop_
 _symmetry_equiv_pos_site_id
 _symmetry_equiv_pos_as_xyz
  1  'x, y, z'
loop_
 _atom_site_type_symbol
 _atom_site_label
 _atom_site_symmetry_multiplicity
 _atom_site_fract_x
 _atom_site_fract_y
 _atom_site_fract_z
 _atom_site_occupancy
  Dy  Dy0  1  0.617202  0.055967  0.284988  1
  Dy  Dy1  1  0.117202  0.284988  0.055967  1
  Dy  Dy2  1  0.750000  0.633962  0.366038  1
  Dy  Dy3  1  0.750000  0.105432  0.894568  1
  Dy  Dy4  1  0.250000  0.894568  0.105432  1
  Dy  Dy5  1  0.250000  0.366038  0.633962  1
  Dy  Dy6  1  0.882798  0.715012  0.944033  1
  Dy  Dy7  1  0.382798  0.944033  0.715012  1
  W  W8  1  0.933597  0.199641  0.494174  1
  W  W9  1  0.433597  0.494174  0.199641  1
  W  W10  1  0.566403  0.505826  0.800359  1
  W  W11  1  0.066403  0.800359  0.505826  1
  O  O12  1  0.921818  0.107376  0.075479  1
  O  O13  1  0.421818  0.075479  0.107376  1
  O  O14  1  0.738642  0.473431  0.060852  1
  O  O15  1  0.852856  0.215696  0.316369  1
  O  O16  1  0.238642  0.060852  0.473431  1
  O  O17  1  0.352856  0.316369  0.215696  1
  O  O18  1  0.614867  0.176042  0.620224  1
  O  O19  1  0.114867  0.620224  0.176042  1
  O  O20  1  0.979669  0.388672  0.455450  1
  O  O21  1  0.578975  0.687929  0.159723  1
  O  O22  1  0.479669  0.455450  0.388672  1
  O  O23  1  0.078975  0.159723  0.687929  1
  O  O24  1  0.921025  0.840277  0.312071  1
  O  O25  1  0.520331  0.544550  0.611328  1
  O  O26  1  0.421025  0.312071  0.840277  1
  O  O27  1  0.020331  0.611328  0.544550  1
  O  O28  1  0.885133  0.379776  0.823958  1
  O  O29  1  0.385133  0.823958  0.379776  1
  O  O30  1  0.647144  0.683631  0.784304  1
  O  O31  1  0.761358  0.939148  0.526569  1
  O  O32  1  0.147144  0.784304  0.683631  1
  O  O33  1  0.261358  0.526569  0.939148  1
  O  O34  1  0.578182  0.924521  0.892624  1
  O  O35  1  0.078182  0.892624  0.924521  1
