# generated using pymatgen
data_Dy2Zr2O7
_symmetry_space_group_name_H-M   'P 1'
_cell_length_a   7.32191143
_cell_length_b   7.32188141
_cell_length_c   12.62676749
_cell_angle_alpha   89.99997011
_cell_angle_beta   90.00011629
_cell_angle_gamma   90.00841529
_symmetry_Int_Tables_number   1
_chemical_formula_structural   Dy2Zr2O7
_chemical_formula_sum   'Dy8 Zr8 O28'
_cell_volume   676.92310880
_cell_formula_units_Z   4
loop_
 _symmetry_equiv_pos_site_id
 _symmetry_equiv_pos_as_xyz
  1  'x, y, z'
loop_
 _atom_site_type_symbol
 _atom_site_label
 _atom_site_symmetry_multiplicity
 _atom_site_fract_x
 _atom_site_fract_y
 _atom_site_fract_z
 _atom_site_occupancy
  Dy  Dy0  1  0.137739  0.626774  0.135379  1
  Dy  Dy1  1  0.126935  0.362241  0.885354  1
  Dy  Dy2  1  0.373221  0.862259  0.364620  1
  Dy  Dy3  1  0.362256  0.126921  0.114647  1
  Dy  Dy4  1  0.637761  0.873070  0.614646  1
  Dy  Dy5  1  0.626790  0.137739  0.864618  1
  Dy  Dy6  1  0.873074  0.637748  0.385351  1
  Dy  Dy7  1  0.862265  0.373220  0.635382  1
  Zr  Zr8  1  0.101393  0.869968  0.595291  1
  Zr  Zr9  1  0.130039  0.898609  0.904708  1
  Zr  Zr10  1  0.370011  0.398747  0.345376  1
  Zr  Zr11  1  0.398745  0.370031  0.654624  1
  Zr  Zr12  1  0.601252  0.629969  0.154621  1
  Zr  Zr13  1  0.629981  0.601256  0.845377  1
  Zr  Zr14  1  0.869977  0.101383  0.404710  1
  Zr  Zr15  1  0.898622  0.130017  0.095292  1
  O  O16  1  0.069359  0.906949  0.413647  1
  O  O17  1  0.084649  0.327484  0.073919  1
  O  O18  1  0.093057  0.930632  0.086356  1
  O  O19  1  0.154202  0.636861  0.956183  1
  O  O20  1  0.172351  0.584593  0.324070  1
  O  O21  1  0.136966  0.346666  0.706097  1
  O  O22  1  0.157046  0.842947  0.750000  1
  O  O23  1  0.342760  0.342811  0.500002  1
  O  O24  1  0.363138  0.845795  0.543813  1
  O  O25  1  0.327504  0.084644  0.926081  1
  O  O26  1  0.346639  0.136965  0.293909  1
  O  O27  1  0.406620  0.430784  0.163679  1
  O  O28  1  0.415427  0.827647  0.175925  1
  O  O29  1  0.430793  0.406624  0.836320  1
  O  O30  1  0.569210  0.593366  0.336321  1
  O  O31  1  0.584571  0.172349  0.675918  1
  O  O32  1  0.593377  0.569215  0.663683  1
  O  O33  1  0.653370  0.863035  0.793904  1
  O  O34  1  0.672514  0.915349  0.426081  1
  O  O35  1  0.636878  0.154199  0.043811  1
  O  O36  1  0.657187  0.657236  -0.000003  1
  O  O37  1  0.842968  0.157041  0.250002  1
  O  O38  1  0.863032  0.653324  0.206089  1
  O  O39  1  0.827643  0.415407  0.824083  1
  O  O40  1  0.845806  0.363129  0.456190  1
  O  O41  1  0.906961  0.069357  0.586362  1
  O  O42  1  0.915358  0.672503  0.573920  1
  O  O43  1  0.930652  0.093035  0.913642  1
