# generated using pymatgen
data_Dy2Zr2O7
_symmetry_space_group_name_H-M   'P 1'
_cell_length_a   7.87998343
_cell_length_b   13.82668000
_cell_length_c   5.53596720
_cell_angle_alpha   90.00000000
_cell_angle_beta   90.00000000
_cell_angle_gamma   98.45593789
_symmetry_Int_Tables_number   1
_chemical_formula_structural   Dy2Zr2O7
_chemical_formula_sum   'Dy8 Zr8 O28'
_cell_volume   596.60895141
_cell_formula_units_Z   4
loop_
 _symmetry_equiv_pos_site_id
 _symmetry_equiv_pos_as_xyz
  1  'x, y, z'
loop_
 _atom_site_type_symbol
 _atom_site_label
 _atom_site_symmetry_multiplicity
 _atom_site_fract_x
 _atom_site_fract_y
 _atom_site_fract_z
 _atom_site_occupancy
  Dy  Dy0  1  0.136669  0.559119  0.327316  1
  Dy  Dy1  1  0.237247  0.927690  0.779226  1
  Dy  Dy2  1  0.286528  0.133994  0.242971  1
  Dy  Dy3  1  0.361982  0.398980  0.759582  1
  Dy  Dy4  1  0.638018  0.601020  0.259582  1
  Dy  Dy5  1  0.713472  0.866006  0.742971  1
  Dy  Dy6  1  0.762753  0.072310  0.279226  1
  Dy  Dy7  1  0.863331  0.440881  0.827316  1
  Zr  Zr8  1  0.074386  0.319685  0.265365  1
  Zr  Zr9  1  0.026941  0.118662  0.762922  1
  Zr  Zr10  1  0.410582  0.672988  0.777143  1
  Zr  Zr11  1  0.467700  0.874830  0.264823  1
  Zr  Zr12  1  0.532300  0.125170  0.764823  1
  Zr  Zr13  1  0.589418  0.327012  0.277143  1
  Zr  Zr14  1  0.973059  0.881338  0.262922  1
  Zr  Zr15  1  0.925614  0.680315  0.765365  1
  O  O16  1  0.077679  0.417336  0.552185  1
  O  O17  1  0.996317  0.174050  0.419069  1
  O  O18  1  0.169677  0.674182  0.633967  1
  O  O19  1  0.221779  0.882919  0.386005  1
  O  O20  1  0.153786  0.434453  0.043479  1
  O  O21  1  0.075071  0.021548  0.050268  1
  O  O22  1  0.138817  0.229821  0.966566  1
  O  O23  1  0.364994  0.622171  0.111791  1
  O  O24  1  0.415677  0.827131  0.914152  1
  O  O25  1  0.271419  0.084440  0.634538  1
  O  O26  1  0.323572  0.298290  0.403806  1
  O  O27  1  0.422261  0.546936  0.575994  1
  O  O28  1  0.560875  0.976826  0.546316  1
  O  O29  1  0.526068  0.766364  0.475002  1
  O  O30  1  0.473932  0.233636  0.975002  1
  O  O31  1  0.439126  0.023174  0.046316  1
  O  O32  1  0.577739  0.453064  0.075994  1
  O  O33  1  0.676428  0.701710  0.903806  1
  O  O34  1  0.728581  0.915560  0.134538  1
  O  O35  1  0.584323  0.172869  0.414152  1
  O  O36  1  0.635006  0.377829  0.611791  1
  O  O37  1  0.861183  0.770179  0.466566  1
  O  O38  1  0.924929  0.978452  0.550268  1
  O  O39  1  0.846214  0.565547  0.543479  1
  O  O40  1  0.778221  0.117081  0.886005  1
  O  O41  1  0.830323  0.325818  0.133967  1
  O  O42  1  0.003683  0.825950  0.919069  1
  O  O43  1  0.922321  0.582664  0.052185  1
