# generated using pymatgen
data_Er10Ru10C19
_symmetry_space_group_name_H-M   'P 1'
_cell_length_a   7.24428817
_cell_length_b   8.16678316
_cell_length_c   10.03641133
_cell_angle_alpha   109.09465586
_cell_angle_beta   90.00000000
_cell_angle_gamma   116.32878486
_symmetry_Int_Tables_number   1
_chemical_formula_structural   Er10Ru10C19
_chemical_formula_sum   'Er10 Ru10 C19'
_cell_volume   495.46790475
_cell_formula_units_Z   1
loop_
 _symmetry_equiv_pos_site_id
 _symmetry_equiv_pos_as_xyz
  1  'x, y, z'
loop_
 _atom_site_type_symbol
 _atom_site_label
 _atom_site_symmetry_multiplicity
 _atom_site_fract_x
 _atom_site_fract_y
 _atom_site_fract_z
 _atom_site_occupancy
  C  C0  1  0.788491  0.576983  0.989476  1
  C  C1  1  0.391967  0.579777  0.989314  1
  C  C2  1  0.187810  0.579777  0.989314  1
  C  C3  1  0.354617  0.215369  0.555787  1
  C  C4  1  0.860752  0.215369  0.555787  1
  C  C5  1  0.085193  0.649071  0.422741  1
  C  C6  1  0.563878  0.649071  0.422741  1
  C  C7  1  0.458811  0.413424  0.631446  1
  C  C8  1  0.954613  0.413424  0.631446  1
  C  C9  1  0.636197  0.771508  0.347452  1
  C  C10  1  0.182074  0.869799  0.782705  1
  C  C11  1  0.285636  0.077101  0.196119  1
  C  C12  1  0.791465  0.077101  0.196119  1
  C  C13  1  0.285663  0.070800  0.823979  1
  C  C14  1  0.687725  0.869799  0.782705  1
  C  C15  1  0.785137  0.070800  0.823979  1
  C  C16  1  0.368382  0.236656  0.154862  1
  C  C17  1  0.868274  0.236656  0.154862  1
  C  C18  1  0.135311  0.771508  0.347452  1
  Ru  Ru19  1  0.461010  0.354664  0.989528  1
  Ru  Ru20  1  0.219662  0.945792  0.583127  1
  Ru  Ru21  1  0.726130  0.945792  0.583127  1
  Ru  Ru22  1  0.417856  0.353580  0.396173  1
  Ru  Ru23  1  0.022953  0.620641  0.843319  1
  Ru  Ru24  1  0.597688  0.620641  0.843319  1
  Ru  Ru25  1  0.670371  0.767166  0.135536  1
  Ru  Ru26  1  0.096795  0.767166  0.135536  1
  Ru  Ru27  1  0.935724  0.353580  0.396173  1
  Ru  Ru28  1  0.893654  0.354664  0.989528  1
  Er  Er29  1  0.000294  0.000588  0.989314  1
  Er  Er30  1  0.478182  0.956364  0.989215  1
  Er  Er31  1  0.323073  0.646145  0.613355  1
  Er  Er32  1  0.510802  0.021604  0.364017  1
  Er  Er33  1  0.016114  0.032227  0.380720  1
  Er  Er34  1  0.821440  0.642881  0.600074  1
  Er  Er35  1  0.625712  0.251423  0.737874  1
  Er  Er36  1  0.751306  0.502612  0.240136  1
  Er  Er37  1  0.141911  0.283822  0.764200  1
  Er  Er38  1  0.254776  0.509551  0.215083  1
