# generated using pymatgen
data_Er10Ti6O27
_symmetry_space_group_name_H-M   'P 1'
_cell_length_a   7.41200225
_cell_length_b   7.41200221
_cell_length_c   13.91246570
_cell_angle_alpha   59.55326802
_cell_angle_beta   59.55326532
_cell_angle_gamma   61.38534436
_symmetry_Int_Tables_number   1
_chemical_formula_structural   Er10Ti6O27
_chemical_formula_sum   'Er10 Ti6 O27'
_cell_volume   542.09026203
_cell_formula_units_Z   1
loop_
 _symmetry_equiv_pos_site_id
 _symmetry_equiv_pos_as_xyz
  1  'x, y, z'
loop_
 _atom_site_type_symbol
 _atom_site_label
 _atom_site_symmetry_multiplicity
 _atom_site_fract_x
 _atom_site_fract_y
 _atom_site_fract_z
 _atom_site_occupancy
  Er  Er0  1  0.992464  0.464364  0.018191  1
  Er  Er1  1  0.464364  0.992464  0.018191  1
  Er  Er2  1  0.031416  0.474133  0.246921  1
  Er  Er3  1  0.983471  0.498621  0.751007  1
  Er  Er4  1  0.489347  0.489347  0.243084  1
  Er  Er5  1  0.515159  0.515159  0.479778  1
  Er  Er6  1  0.474133  0.031416  0.246921  1
  Er  Er7  1  0.499898  0.499898  0.754400  1
  Er  Er8  1  0.498621  0.983471  0.751007  1
  Er  Er9  1  0.990814  0.990814  0.749776  1
  O  O10  1  0.028127  0.700976  0.065109  1
  O  O11  1  0.112967  0.112967  0.307098  1
  O  O12  1  0.385921  0.385921  0.161819  1
  O  O13  1  0.700976  0.028127  0.065109  1
  O  O14  1  0.046174  0.679370  0.314048  1
  O  O15  1  0.169755  0.578300  0.553611  1
  O  O16  1  0.319301  0.319301  0.437714  1
  O  O17  1  0.389339  0.814796  0.229411  1
  O  O18  1  0.105498  0.105498  0.831416  1
  O  O19  1  0.650232  0.650232  0.044083  1
  O  O20  1  0.679370  0.046174  0.314048  1
  O  O21  1  0.814796  0.389339  0.229411  1
  O  O22  1  0.578300  0.169755  0.553611  1
  O  O23  1  0.316355  0.929230  0.456079  1
  O  O24  1  0.131174  0.601191  0.815777  1
  O  O25  1  0.378538  0.378538  0.970392  1
  O  O26  1  0.353478  0.905669  0.660650  1
  O  O27  1  0.626441  0.626441  0.549171  1
  O  O28  1  0.076317  0.076317  0.098972  1
  O  O29  1  0.601191  0.131174  0.815777  1
  O  O30  1  0.929230  0.316355  0.456079  1
  O  O31  1  0.905669  0.353478  0.660650  1
  O  O32  1  0.867911  0.867911  0.466141  1
  O  O33  1  0.364197  0.832378  0.953253  1
  O  O34  1  0.633345  0.633345  0.800392  1
  O  O35  1  0.899572  0.899572  0.657490  1
  O  O36  1  0.832378  0.364197  0.953253  1
  Ti  Ti37  1  0.999233  0.999233  0.003406  1
  Ti  Ti38  1  0.005019  0.516187  0.500238  1
  Ti  Ti39  1  0.012701  0.012701  0.489719  1
  Ti  Ti40  1  0.516187  0.005019  0.500238  1
  Ti  Ti41  1  0.524950  0.524950  0.983856  1
  Ti  Ti42  1  0.980674  0.980674  0.280203  1
