# generated using pymatgen
data_Er3TaO7
_symmetry_space_group_name_H-M   'P 1'
_cell_length_a   7.42858343
_cell_length_b   10.52580451
_cell_length_c   7.50776417
_cell_angle_alpha   90.00000000
_cell_angle_beta   90.00000000
_cell_angle_gamma   90.00000000
_symmetry_Int_Tables_number   1
_chemical_formula_structural   Er3TaO7
_chemical_formula_sum   'Er12 Ta4 O28'
_cell_volume   587.04572184
_cell_formula_units_Z   4
loop_
 _symmetry_equiv_pos_site_id
 _symmetry_equiv_pos_as_xyz
  1  'x, y, z'
loop_
 _atom_site_type_symbol
 _atom_site_label
 _atom_site_symmetry_multiplicity
 _atom_site_fract_x
 _atom_site_fract_y
 _atom_site_fract_z
 _atom_site_occupancy
  Er  Er0  1  0.012454  0.250000  0.795294  1
  Er  Er1  1  0.251852  0.519695  0.967841  1
  Er  Er2  1  0.251852  0.980305  0.967841  1
  Er  Er3  1  0.248148  0.019695  0.467841  1
  Er  Er4  1  0.248148  0.480305  0.467841  1
  Er  Er5  1  0.487546  0.750000  0.295294  1
  Er  Er6  1  0.512454  0.250000  0.704706  1
  Er  Er7  1  0.751852  0.519695  0.532159  1
  Er  Er8  1  0.751852  0.980305  0.532159  1
  Er  Er9  1  0.748148  0.019695  0.032159  1
  Er  Er10  1  0.748148  0.480305  0.032159  1
  Er  Er11  1  0.987546  0.750000  0.204706  1
  Ta  Ta12  1  0.999393  0.750000  0.747634  1
  Ta  Ta13  1  0.500607  0.250000  0.247634  1
  Ta  Ta14  1  0.499393  0.750000  0.752366  1
  Ta  Ta15  1  0.000607  0.250000  0.252366  1
  O  O16  1  0.036174  0.124030  0.045700  1
  O  O17  1  0.036174  0.375970  0.045700  1
  O  O18  1  0.040110  0.611711  0.582200  1
  O  O19  1  0.040110  0.888289  0.582200  1
  O  O20  1  0.248495  0.250000  0.336063  1
  O  O21  1  0.254964  0.116005  0.731176  1
  O  O22  1  0.254964  0.383995  0.731176  1
  O  O23  1  0.245036  0.616005  0.231176  1
  O  O24  1  0.245036  0.883995  0.231176  1
  O  O25  1  0.251505  0.750000  0.836063  1
  O  O26  1  0.459890  0.111711  0.082200  1
  O  O27  1  0.459890  0.388289  0.082200  1
  O  O28  1  0.463826  0.624030  0.545700  1
  O  O29  1  0.463826  0.875970  0.545700  1
  O  O30  1  0.536174  0.124030  0.454300  1
  O  O31  1  0.536174  0.375970  0.454300  1
  O  O32  1  0.540110  0.611711  0.917800  1
  O  O33  1  0.540110  0.888289  0.917800  1
  O  O34  1  0.748495  0.250000  0.163937  1
  O  O35  1  0.754964  0.116005  0.768824  1
  O  O36  1  0.754964  0.383995  0.768824  1
  O  O37  1  0.745036  0.616005  0.268824  1
  O  O38  1  0.745036  0.883995  0.268824  1
  O  O39  1  0.751505  0.750000  0.663937  1
  O  O40  1  0.959890  0.111711  0.417800  1
  O  O41  1  0.959890  0.388289  0.417800  1
  O  O42  1  0.963826  0.624030  0.954300  1
  O  O43  1  0.963826  0.875970  0.954300  1
