# generated using pymatgen
data_Er7Ru2C11
_symmetry_space_group_name_H-M   'P 1'
_cell_length_a   3.40562406
_cell_length_b   8.40949797
_cell_length_c   19.73231834
_cell_angle_alpha   90.00000000
_cell_angle_beta   90.00000000
_cell_angle_gamma   101.68241601
_symmetry_Int_Tables_number   1
_chemical_formula_structural   Er7Ru2C11
_chemical_formula_sum   'Er14 Ru4 C22'
_cell_volume   553.41890548
_cell_formula_units_Z   2
loop_
 _symmetry_equiv_pos_site_id
 _symmetry_equiv_pos_as_xyz
  1  'x, y, z'
loop_
 _atom_site_type_symbol
 _atom_site_label
 _atom_site_symmetry_multiplicity
 _atom_site_fract_x
 _atom_site_fract_y
 _atom_site_fract_z
 _atom_site_occupancy
  C  C0  1  0.499609  0.999219  0.250000  1
  C  C1  1  0.500391  0.000781  0.750000  1
  C  C2  1  0.722073  0.444147  0.250000  1
  C  C3  1  0.277927  0.555853  0.750000  1
  C  C4  1  0.803018  0.606037  0.250000  1
  C  C5  1  0.196982  0.393963  0.750000  1
  C  C6  1  0.206451  0.412901  0.563719  1
  C  C7  1  0.793549  0.587099  0.436281  1
  C  C8  1  0.793549  0.587099  0.063719  1
  C  C9  1  0.206451  0.412901  0.936281  1
  C  C10  1  0.132936  0.265873  0.123702  1
  C  C11  1  0.867064  0.734127  0.876298  1
  C  C12  1  0.867064  0.734127  0.623702  1
  C  C13  1  0.132936  0.265873  0.376298  1
  C  C14  1  0.126828  0.253657  0.584758  1
  C  C15  1  0.873172  0.746343  0.415242  1
  C  C16  1  0.873172  0.746343  0.084758  1
  C  C17  1  0.126828  0.253657  0.915242  1
  C  C18  1  0.074719  0.149438  0.421098  1
  C  C19  1  0.925281  0.850562  0.578902  1
  C  C20  1  0.925281  0.850562  0.921098  1
  C  C21  1  0.074719  0.149438  0.078902  1
  Ru  Ru22  1  0.000000  0.000000  0.500000  1
  Ru  Ru23  1  0.000000  0.000000  0.000000  1
  Ru  Ru24  1  0.920137  0.840275  0.250000  1
  Ru  Ru25  1  0.079863  0.159725  0.750000  1
  Er  Er26  1  0.104116  0.208232  0.250000  1
  Er  Er27  1  0.895884  0.791768  0.750000  1
  Er  Er28  1  0.521818  0.043636  0.627113  1
  Er  Er29  1  0.478182  0.956364  0.372887  1
  Er  Er30  1  0.478182  0.956364  0.127113  1
  Er  Er31  1  0.521818  0.043636  0.872887  1
  Er  Er32  1  0.338231  0.676463  0.518777  1
  Er  Er33  1  0.661769  0.323537  0.481223  1
  Er  Er34  1  0.661769  0.323537  0.018777  1
  Er  Er35  1  0.338231  0.676463  0.981223  1
  Er  Er36  1  0.278697  0.557395  0.154981  1
  Er  Er37  1  0.721303  0.442605  0.845019  1
  Er  Er38  1  0.721303  0.442605  0.654981  1
  Er  Er39  1  0.278697  0.557395  0.345019  1
