# generated using pymatgen
data_Er14Ti10O41
_symmetry_space_group_name_H-M   'P 1'
_cell_length_a   7.27886569
_cell_length_b   7.29258561
_cell_length_c   21.58797365
_cell_angle_alpha   59.55495703
_cell_angle_beta   59.13297952
_cell_angle_gamma   59.93762992
_symmetry_Int_Tables_number   1
_chemical_formula_structural   Er14Ti10O41
_chemical_formula_sum   'Er14 Ti10 O41'
_cell_volume   801.77220195
_cell_formula_units_Z   1
loop_
 _symmetry_equiv_pos_site_id
 _symmetry_equiv_pos_as_xyz
  1  'x, y, z'
loop_
 _atom_site_type_symbol
 _atom_site_label
 _atom_site_symmetry_multiplicity
 _atom_site_fract_x
 _atom_site_fract_y
 _atom_site_fract_z
 _atom_site_occupancy
  Er  Er0  1  0.994915  0.979283  0.182173  1
  Er  Er1  1  0.991081  0.503362  0.167399  1
  Er  Er2  1  0.517878  0.990274  0.000525  1
  Er  Er3  1  0.473032  0.525332  0.992101  1
  Er  Er4  1  0.509184  0.985135  0.168290  1
  Er  Er5  1  0.979749  0.505859  0.502845  1
  Er  Er6  1  0.509184  0.500810  0.168290  1
  Er  Er7  1  0.502183  0.505127  0.329187  1
  Er  Er8  1  0.503656  0.506659  0.503399  1
  Er  Er9  1  0.498096  0.496885  0.669378  1
  Er  Er10  1  0.510802  0.004016  0.829661  1
  Er  Er11  1  0.503656  0.979489  0.503399  1
  Er  Er12  1  0.510802  0.496197  0.829661  1
  Er  Er13  1  0.998888  0.503368  0.831458  1
  Ti  Ti14  1  0.006700  0.005014  0.001539  1
  Ti  Ti15  1  0.006700  0.483669  0.001539  1
  Ti  Ti16  1  0.008085  0.010225  0.339766  1
  Ti  Ti17  1  0.008085  0.462391  0.339766  1
  Ti  Ti18  1  0.466149  0.009763  0.338108  1
  Ti  Ti19  1  0.004457  0.002018  0.664177  1
  Ti  Ti20  1  0.997715  0.002566  0.832384  1
  Ti  Ti21  1  0.004457  0.500993  0.664177  1
  Ti  Ti22  1  0.014614  0.012684  0.486673  1
  Ti  Ti23  1  0.502536  0.002895  0.663892  1
  O  O24  1  0.120394  0.126576  0.218986  1
  O  O25  1  0.080796  0.668096  0.027670  1
  O  O26  1  0.631776  0.148594  0.038326  1
  O  O27  1  0.120394  0.596073  0.218986  1
  O  O28  1  0.127165  0.124261  0.374771  1
  O  O29  1  0.104520  0.105160  0.547555  1
  O  O30  1  0.072191  0.666698  0.364804  1
  O  O31  1  0.361837  0.882756  0.124217  1
  O  O32  1  0.352240  0.352623  0.308724  1
  O  O33  1  0.631776  0.604651  0.038326  1
  O  O34  1  0.610006  0.113997  0.220667  1
  O  O35  1  0.667095  0.072905  0.364215  1
  O  O36  1  0.923965  0.341278  0.109968  1
  O  O37  1  0.104520  0.647653  0.547555  1
  O  O38  1  0.635895  0.619724  0.208219  1
  O  O39  1  0.352240  0.868963  0.308724  1
  O  O40  1  0.087340  0.678659  0.685114  1
  O  O41  1  0.040455  0.081449  0.893991  1
  O  O42  1  0.350612  0.892767  0.454619  1
  O  O43  1  0.334778  0.332042  0.638967  1
  O  O44  1  0.667095  0.667353  0.364215  1
  O  O45  1  0.652805  0.099965  0.549088  1
  O  O46  1  0.923965  0.904851  0.109968  1
  O  O47  1  0.866966  0.349199  0.311545  1
  O  O48  1  0.893715  0.349066  0.454739  1
  O  O49  1  0.673909  0.082673  0.689521  1
  O  O50  1  0.040455  0.696125  0.893991  1
  O  O51  1  0.620560  0.622420  0.544867  1
  O  O52  1  0.367207  0.376616  0.793188  1
  O  O53  1  0.334778  0.916280  0.638967  1
  O  O54  1  0.328842  0.924268  0.774207  1
  O  O55  1  0.330719  0.359638  0.962927  1
  O  O56  1  0.673909  0.674855  0.689521  1
  O  O57  1  0.912788  0.333277  0.640220  1
  O  O58  1  0.664830  0.108009  0.873051  1
  O  O59  1  0.893715  0.893004  0.454739  1
  O  O60  1  0.928490  0.343330  0.772398  1
  O  O61  1  0.628288  0.629882  0.870650  1
  O  O62  1  0.330719  0.920863  0.962927  1
  O  O63  1  0.928490  0.910988  0.772398  1
  O  O64  1  0.980155  0.313401  0.964348  1
