# generated using pymatgen
data_Er4Mo4O11
_symmetry_space_group_name_H-M   'P 1'
_cell_length_a   5.70257387
_cell_length_b   10.73796203
_cell_length_c   15.93310779
_cell_angle_alpha   90.00000000
_cell_angle_beta   90.00000000
_cell_angle_gamma   90.00000000
_symmetry_Int_Tables_number   1
_chemical_formula_structural   Er4Mo4O11
_chemical_formula_sum   'Er16 Mo16 O44'
_cell_volume   975.64826799
_cell_formula_units_Z   4
loop_
 _symmetry_equiv_pos_site_id
 _symmetry_equiv_pos_as_xyz
  1  'x, y, z'
loop_
 _atom_site_type_symbol
 _atom_site_label
 _atom_site_symmetry_multiplicity
 _atom_site_fract_x
 _atom_site_fract_y
 _atom_site_fract_z
 _atom_site_occupancy
  Er  Er0  1  0.000000  0.614912  0.577211  1
  Er  Er1  1  0.000000  0.385088  0.422789  1
  Er  Er2  1  0.000000  0.114912  0.922789  1
  Er  Er3  1  0.000000  0.885088  0.077211  1
  Er  Er4  1  0.000000  0.403408  0.736282  1
  Er  Er5  1  0.000000  0.596592  0.263718  1
  Er  Er6  1  0.000000  0.903408  0.763718  1
  Er  Er7  1  0.000000  0.096592  0.236282  1
  Er  Er8  1  0.500000  0.424016  0.598836  1
  Er  Er9  1  0.500000  0.575984  0.401164  1
  Er  Er10  1  0.500000  0.924016  0.901164  1
  Er  Er11  1  0.500000  0.075984  0.098836  1
  Er  Er12  1  0.500000  0.184421  0.776932  1
  Er  Er13  1  0.500000  0.815579  0.223068  1
  Er  Er14  1  0.500000  0.684421  0.723068  1
  Er  Er15  1  0.500000  0.315579  0.276932  1
  Mo  Mo16  1  0.000000  0.916291  0.560799  1
  Mo  Mo17  1  0.000000  0.083709  0.439201  1
  Mo  Mo18  1  0.000000  0.416291  0.939201  1
  Mo  Mo19  1  0.000000  0.583709  0.060799  1
  Mo  Mo20  1  0.500000  0.903785  0.571389  1
  Mo  Mo21  1  0.500000  0.096215  0.428611  1
  Mo  Mo22  1  0.500000  0.403785  0.928611  1
  Mo  Mo23  1  0.500000  0.596215  0.071389  1
  Mo  Mo24  1  0.274955  0.863692  0.414058  1
  Mo  Mo25  1  0.274955  0.136308  0.585942  1
  Mo  Mo26  1  0.725045  0.363692  0.085942  1
  Mo  Mo27  1  0.725045  0.636308  0.914058  1
  Mo  Mo28  1  0.725045  0.136308  0.585942  1
  Mo  Mo29  1  0.725045  0.863692  0.414058  1
  Mo  Mo30  1  0.274955  0.636308  0.914058  1
  Mo  Mo31  1  0.274955  0.363692  0.085942  1
  O  O32  1  0.245605  0.000000  0.000000  1
  O  O33  1  0.754395  0.500000  0.500000  1
  O  O34  1  0.754395  0.000000  0.000000  1
  O  O35  1  0.245605  0.500000  0.500000  1
  O  O36  1  0.000000  0.232898  0.522661  1
  O  O37  1  0.000000  0.767102  0.477339  1
  O  O38  1  0.000000  0.732898  0.977339  1
  O  O39  1  0.000000  0.267102  0.022661  1
  O  O40  1  0.000000  0.047950  0.655050  1
  O  O41  1  0.000000  0.952050  0.344950  1
  O  O42  1  0.000000  0.547950  0.844950  1
  O  O43  1  0.000000  0.452050  0.155050  1
  O  O44  1  0.500000  0.248649  0.513463  1
  O  O45  1  0.500000  0.751351  0.486537  1
  O  O46  1  0.500000  0.748649  0.986537  1
  O  O47  1  0.500000  0.251351  0.013463  1
  O  O48  1  0.500000  0.041203  0.667448  1
  O  O49  1  0.500000  0.958797  0.332552  1
  O  O50  1  0.762659  0.309889  0.859727  1
  O  O51  1  0.500000  0.541203  0.832552  1
  O  O52  1  0.247434  0.959876  0.172333  1
  O  O53  1  0.247434  0.040124  0.827667  1
  O  O54  1  0.752566  0.459876  0.327667  1
  O  O55  1  0.752566  0.540124  0.672333  1
  O  O56  1  0.752566  0.040124  0.827667  1
  O  O57  1  0.752566  0.959876  0.172333  1
  O  O58  1  0.247434  0.540124  0.672333  1
  O  O59  1  0.247434  0.459876  0.327667  1
  O  O60  1  0.237341  0.690111  0.140273  1
  O  O61  1  0.237341  0.309889  0.859727  1
  O  O62  1  0.762659  0.190111  0.359727  1
  O  O63  1  0.762659  0.809889  0.640273  1
  O  O64  1  0.264290  0.223017  0.175037  1
  O  O65  1  0.264290  0.776983  0.824963  1
  O  O66  1  0.735710  0.723017  0.324963  1
  O  O67  1  0.735710  0.276983  0.675037  1
  O  O68  1  0.735710  0.776983  0.824963  1
  O  O69  1  0.735710  0.223017  0.175037  1
  O  O70  1  0.264290  0.276983  0.675037  1
  O  O71  1  0.264290  0.723017  0.324963  1
  O  O72  1  0.237341  0.190111  0.359727  1
  O  O73  1  0.237341  0.809889  0.640273  1
  O  O74  1  0.762659  0.690111  0.140273  1
  O  O75  1  0.500000  0.458797  0.167448  1
