# generated using pymatgen
data_CdMoO4
_symmetry_space_group_name_H-M   'P 1'
_cell_length_a   5.25476511
_cell_length_b   5.25514389
_cell_length_c   6.81010114
_cell_angle_alpha   112.70084544
_cell_angle_beta   112.70059066
_cell_angle_gamma   89.98877671
_symmetry_Int_Tables_number   1
_chemical_formula_structural   CdMoO4
_chemical_formula_sum   'Cd2 Mo2 O8'
_cell_volume   157.58681880
_cell_formula_units_Z   2
loop_
 _symmetry_equiv_pos_site_id
 _symmetry_equiv_pos_as_xyz
  1  'x, y, z'
loop_
 _atom_site_type_symbol
 _atom_site_label
 _atom_site_symmetry_multiplicity
 _atom_site_fract_x
 _atom_site_fract_y
 _atom_site_fract_z
 _atom_site_occupancy
  O  O0  1  0.205376  0.555374  0.922303  1
  O  O1  1  0.367056  0.705389  0.422435  1
  O  O2  1  0.055378  0.216937  0.422431  1
  O  O3  1  0.716973  0.867000  0.922400  1
  O  O4  1  0.283027  0.133000  0.077600  1
  O  O5  1  0.944622  0.783063  0.577569  1
  O  O6  1  0.632944  0.294611  0.577565  1
  O  O7  1  0.794624  0.444626  0.077697  1
  Mo  Mo8  1  0.125071  0.375002  0.250100  1
  Mo  Mo9  1  0.874929  0.624998  0.749900  1
  Cd  Cd10  1  0.624981  0.874982  0.249981  1
  Cd  Cd11  1  0.375019  0.125018  0.750019  1
