# generated using pymatgen
data_Er2TiO5
_symmetry_space_group_name_H-M   'P 1'
_cell_length_a   7.38850398
_cell_length_b   7.24361808
_cell_length_c   21.78409476
_cell_angle_alpha   60.07840115
_cell_angle_beta   59.42192963
_cell_angle_gamma   60.64710357
_symmetry_Int_Tables_number   1
_chemical_formula_structural   Er2TiO5
_chemical_formula_sum   'Er16 Ti8 O40'
_cell_volume   825.12703764
_cell_formula_units_Z   8
loop_
 _symmetry_equiv_pos_site_id
 _symmetry_equiv_pos_as_xyz
  1  'x, y, z'
loop_
 _atom_site_type_symbol
 _atom_site_label
 _atom_site_symmetry_multiplicity
 _atom_site_fract_x
 _atom_site_fract_y
 _atom_site_fract_z
 _atom_site_occupancy
  Er  Er0  1  0.005574  0.979567  0.178388  1
  Er  Er1  1  0.533277  0.986769  0.997769  1
  Er  Er2  1  0.001614  0.521799  0.151573  1
  Er  Er3  1  0.498785  0.994911  0.166559  1
  Er  Er4  1  0.017884  0.969495  0.514391  1
  Er  Er5  1  0.474003  0.526497  0.991026  1
  Er  Er6  1  0.498776  0.506637  0.166540  1
  Er  Er7  1  0.987493  0.497226  0.506050  1
  Er  Er8  1  0.515302  0.974675  0.505449  1
  Er  Er9  1  0.545345  0.487661  0.326423  1
  Er  Er10  1  0.522688  0.977089  0.340986  1
  Er  Er11  1  0.515129  0.493654  0.505518  1
  Er  Er12  1  0.999937  0.482306  0.845211  1
  Er  Er13  1  0.551001  0.995437  0.821973  1
  Er  Er14  1  0.525414  0.478889  0.672428  1
  Er  Er15  1  0.550977  0.487714  0.821983  1
  O  O16  1  0.095821  0.665954  0.024063  1
  O  O17  1  0.124966  0.154581  0.209567  1
  O  O18  1  0.125107  0.591673  0.209509  1
  O  O19  1  0.602125  0.162741  0.042537  1
  O  O20  1  0.304540  0.395123  0.317414  1
  O  O21  1  0.365577  0.884310  0.121943  1
  O  O22  1  0.914710  0.827967  0.309721  1
  O  O23  1  0.144985  0.140246  0.546932  1
  O  O24  1  0.606478  0.123262  0.215648  1
  O  O25  1  0.602269  0.607574  0.042503  1
  O  O26  1  0.304496  0.848058  0.317404  1
  O  O27  1  0.928775  0.344286  0.103878  1
  O  O28  1  0.652473  0.616010  0.205142  1
  O  O29  1  0.144887  0.574116  0.546948  1
  O  O30  1  0.622175  0.132282  0.381556  1
  O  O31  1  0.324125  0.338878  0.653126  1
  O  O32  1  0.370350  0.868001  0.464582  1
  O  O33  1  0.976769  0.084040  0.907063  1
  O  O34  1  0.030037  0.779489  0.637009  1
  O  O35  1  0.939168  0.294697  0.323834  1
  O  O36  1  0.621893  0.600718  0.381649  1
  O  O37  1  0.928717  0.915212  0.103894  1
  O  O38  1  0.628319  0.097153  0.559121  1
  O  O39  1  0.324192  0.877394  0.653121  1
  O  O40  1  0.934664  0.366034  0.443092  1
  O  O41  1  0.977021  0.717771  0.906980  1
  O  O42  1  0.362225  0.377142  0.794484  1
  O  O43  1  0.663187  0.081004  0.693718  1
  O  O44  1  0.635778  0.606719  0.550269  1
  O  O45  1  0.316067  0.918134  0.782619  1
  O  O46  1  0.333462  0.361583  0.956305  1
  O  O47  1  0.894870  0.316094  0.657662  1
  O  O48  1  0.934632  0.870102  0.443085  1
  O  O49  1  0.674850  0.118596  0.862668  1
  O  O50  1  0.663116  0.674653  0.693744  1
  O  O51  1  0.333457  0.936027  0.956303  1
  O  O52  1  0.941221  0.371866  0.772596  1
  O  O53  1  0.634697  0.625279  0.871606  1
  O  O54  1  0.972516  0.314916  0.965860  1
  O  O55  1  0.941220  0.869286  0.772584  1
  Ti  Ti56  1  0.025245  0.000196  0.999546  1
  Ti  Ti57  1  0.025226  0.475826  0.999560  1
  Ti  Ti58  1  0.006000  0.493322  0.333826  1
  Ti  Ti59  1  0.502096  0.990179  0.672667  1
  Ti  Ti60  1  0.005961  0.999287  0.333773  1
  Ti  Ti61  1  0.025350  0.488725  0.663144  1
  Ti  Ti62  1  0.995397  0.996696  0.837058  1
  Ti  Ti63  1  0.025587  -0.003522  0.663091  1
