# generated using pymatgen
data_Er18Ti14O55
_symmetry_space_group_name_H-M   'P 1'
_cell_length_a   7.22741170
_cell_length_b   7.24449660
_cell_length_c   28.83132247
_cell_angle_alpha   59.83157891
_cell_angle_beta   59.52343803
_cell_angle_gamma   59.92176968
_symmetry_Int_Tables_number   1
_chemical_formula_structural   Er18Ti14O55
_chemical_formula_sum   'Er18 Ti14 O55'
_cell_volume   1061.56146986
_cell_formula_units_Z   1
loop_
 _symmetry_equiv_pos_site_id
 _symmetry_equiv_pos_as_xyz
  1  'x, y, z'
loop_
 _atom_site_type_symbol
 _atom_site_label
 _atom_site_symmetry_multiplicity
 _atom_site_fract_x
 _atom_site_fract_y
 _atom_site_fract_z
 _atom_site_occupancy
  Er  Er0  1  0.998266  0.982214  0.134327  1
  Er  Er1  1  0.518462  0.990054  0.000358  1
  Er  Er2  1  0.508242  0.985604  0.126244  1
  Er  Er3  1  0.477101  0.524069  0.993690  1
  Er  Er4  1  0.997296  0.497269  0.377042  1
  Er  Er5  1  0.508242  0.501179  0.126244  1
  Er  Er6  1  0.497770  0.997348  0.376905  1
  Er  Er7  1  0.496802  0.496334  0.252632  1
  Er  Er8  1  0.990620  0.507735  0.123478  1
  Er  Er9  1  0.001176  0.499548  0.624932  1
  Er  Er10  1  0.497770  0.497261  0.376905  1
  Er  Er11  1  0.499727  0.499757  0.500190  1
  Er  Er12  1  0.500331  0.499897  0.624708  1
  Er  Er13  1  0.511295  0.005429  0.871694  1
  Er  Er14  1  0.501102  0.502752  0.748349  1
  Er  Er15  1  0.500331  0.000941  0.624708  1
  Er  Er16  1  0.511295  0.496500  0.871694  1
  Er  Er17  1  0.001098  0.504714  0.872368  1
  Ti  Ti18  1  0.005351  0.004518  0.001373  1
  Ti  Ti19  1  0.998474  0.997366  0.376698  1
  Ti  Ti20  1  0.489915  0.002169  0.251437  1
  Ti  Ti21  1  0.005351  0.484641  0.001373  1
  Ti  Ti22  1  0.001502  0.002885  0.252039  1
  Ti  Ti23  1  0.499069  0.999056  0.500705  1
  Ti  Ti24  1  0.001856  0.000011  0.749598  1
  Ti  Ti25  1  0.001502  0.487458  0.252039  1
  Ti  Ti26  1  0.994879  0.002067  0.875247  1
  Ti  Ti27  1  0.999040  0.998845  0.500838  1
  Ti  Ti28  1  0.498443  0.000893  0.749943  1
  Ti  Ti29  1  0.999804  0.997778  0.626160  1
  Ti  Ti30  1  0.999040  0.498765  0.500838  1
  Ti  Ti31  1  0.001856  0.499739  0.749598  1
  O  O32  1  0.122622  0.130418  0.162832  1
  O  O33  1  0.083597  0.665293  0.021454  1
  O  O34  1  0.633625  0.145032  0.028910  1
  O  O35  1  0.122622  0.595634  0.162832  1
  O  O36  1  0.081262  0.080637  0.417400  1
  O  O37  1  0.329601  0.328590  0.238566  1
  O  O38  1  0.364797  0.881942  0.092829  1
  O  O39  1  0.068284  0.686269  0.264795  1
  O  O40  1  0.611366  0.117251  0.163534  1
  O  O41  1  0.633625  0.605703  0.028910  1
  O  O42  1  0.686503  0.066432  0.265235  1
  O  O43  1  0.920304  0.346161  0.082979  1
  O  O44  1  0.373111  0.371565  0.345940  1
  O  O45  1  0.329601  0.887547  0.238566  1
  O  O46  1  0.632772  0.614765  0.159424  1
  O  O47  1  0.081262  0.668501  0.417400  1
  O  O48  1  0.083643  0.083270  0.665596  1
  O  O49  1  0.332665  0.332329  0.479035  1
  O  O50  1  0.330888  0.916922  0.333818  1
  O  O51  1  0.081848  0.669173  0.519952  1
  O  O52  1  0.668286  0.080932  0.417462  1
  O  O53  1  0.885951  0.323754  0.241636  1
  O  O54  1  0.920304  0.901619  0.082979  1
  O  O55  1  0.686503  0.686128  0.265235  1
  O  O56  1  0.669320  0.081397  0.519872  1
  O  O57  1  0.376089  0.374275  0.593840  1
  O  O58  1  0.332665  0.918865  0.479035  1
  O  O59  1  0.916072  0.331466  0.334328  1
  O  O60  1  0.623720  0.625241  0.406450  1
  O  O61  1  0.083643  0.670700  0.665596  1
  O  O62  1  0.039600  0.081017  0.921304  1
  O  O63  1  0.333942  0.331639  0.727937  1
  O  O64  1  0.332100  0.919982  0.581984  1
  O  O65  1  0.088375  0.673087  0.766363  1
  O  O66  1  0.671480  0.081409  0.666425  1
  O  O67  1  0.918425  0.332849  0.478969  1
  O  O68  1  0.916072  0.915150  0.334328  1
  O  O69  1  0.669320  0.669799  0.519872  1
  O  O70  1  0.669414  0.084252  0.768995  1
  O  O71  1  0.919323  0.331688  0.582133  1
  O  O72  1  0.370274  0.380729  0.842067  1
  O  O73  1  0.039600  0.694165  0.921304  1
  O  O74  1  0.626124  0.627448  0.654745  1
  O  O75  1  0.333942  0.922667  0.727937  1
  O  O76  1  0.329603  0.358873  0.972905  1
  O  O77  1  0.328084  0.921865  0.832047  1
  O  O78  1  0.663522  0.107841  0.905199  1
  O  O79  1  0.920992  0.332643  0.728430  1
  O  O80  1  0.919323  0.920457  0.582133  1
  O  O81  1  0.669414  0.670354  0.768995  1
  O  O82  1  0.329603  0.919903  0.972905  1
  O  O83  1  0.927000  0.342629  0.830405  1
  O  O84  1  0.628796  0.628877  0.903362  1
  O  O85  1  0.974108  0.314320  0.974313  1
  O  O86  1  0.927000  0.908752  0.830405  1
