# generated using pymatgen
data_Cd(NiO2)2
_symmetry_space_group_name_H-M   'P 1'
_cell_length_a   5.83183300
_cell_length_b   6.25050362
_cell_length_c   5.83183300
_cell_angle_alpha   62.19207112
_cell_angle_beta   90.00000000
_cell_angle_gamma   117.80792888
_symmetry_Int_Tables_number   1
_chemical_formula_structural   Cd(NiO2)2
_chemical_formula_sum   'Cd2 Ni4 O8'
_cell_volume   159.75295923
_cell_formula_units_Z   2
loop_
 _symmetry_equiv_pos_site_id
 _symmetry_equiv_pos_as_xyz
  1  'x, y, z'
loop_
 _atom_site_type_symbol
 _atom_site_label
 _atom_site_symmetry_multiplicity
 _atom_site_fract_x
 _atom_site_fract_y
 _atom_site_fract_z
 _atom_site_occupancy
  Cd  Cd0  1  0.000000  0.000000  0.000000  1
  Cd  Cd1  1  0.750000  0.500000  0.750000  1
  Ni  Ni2  1  0.375000  0.250000  0.375000  1
  Ni  Ni3  1  0.875000  0.250000  0.375000  1
  Ni  Ni4  1  0.375000  0.750000  0.375000  1
  Ni  Ni5  1  0.375000  0.750000  0.875000  1
  O  O6  1  0.146589  0.293178  0.139268  1
  O  O7  1  0.603411  0.206822  0.182447  1
  O  O8  1  0.567554  0.706822  0.146589  1
  O  O9  1  0.139268  0.706822  0.146589  1
  O  O10  1  0.603411  0.206822  0.610732  1
  O  O11  1  0.146589  0.293178  0.567554  1
  O  O12  1  0.182447  0.793178  0.603411  1
  O  O13  1  0.610732  0.793178  0.603411  1
