# generated using pymatgen
data_Er12Co7
_symmetry_space_group_name_H-M   'P 1'
_cell_length_a   8.20347448
_cell_length_b   9.16661111
_cell_length_c   11.07638444
_cell_angle_alpha   90.00000000
_cell_angle_beta   90.00000000
_cell_angle_gamma   102.22084124
_symmetry_Int_Tables_number   1
_chemical_formula_structural   Er12Co7
_chemical_formula_sum   'Er24 Co14'
_cell_volume   814.04773290
_cell_formula_units_Z   2
loop_
 _symmetry_equiv_pos_site_id
 _symmetry_equiv_pos_as_xyz
  1  'x, y, z'
loop_
 _atom_site_type_symbol
 _atom_site_label
 _atom_site_symmetry_multiplicity
 _atom_site_fract_x
 _atom_site_fract_y
 _atom_site_fract_z
 _atom_site_occupancy
  Co  Co0  1  0.000000  0.500000  0.500000  1
  Co  Co1  1  0.500000  0.000000  0.000000  1
  Co  Co2  1  0.058888  0.969257  0.329029  1
  Co  Co3  1  0.441112  0.530743  0.829029  1
  Co  Co4  1  0.941112  0.030743  0.670971  1
  Co  Co5  1  0.558888  0.469257  0.170971  1
  Co  Co6  1  0.407917  0.900136  0.598196  1
  Co  Co7  1  0.092083  0.599864  0.098196  1
  Co  Co8  1  0.592083  0.099864  0.401804  1
  Co  Co9  1  0.907917  0.400136  0.901804  1
  Co  Co10  1  0.058877  0.156394  0.189365  1
  Co  Co11  1  0.441123  0.343606  0.689365  1
  Co  Co12  1  0.941123  0.843606  0.810635  1
  Co  Co13  1  0.558877  0.656394  0.310635  1
  Er  Er14  1  0.227124  0.462525  0.294866  1
  Er  Er15  1  0.272876  0.037475  0.794866  1
  Er  Er16  1  0.840104  0.341947  0.157812  1
  Er  Er17  1  0.659896  0.158053  0.657812  1
  Er  Er18  1  0.159896  0.658053  0.842188  1
  Er  Er19  1  0.340104  0.841947  0.342188  1
  Er  Er20  1  0.798077  0.645307  0.995216  1
  Er  Er21  1  0.701923  0.854693  0.495216  1
  Er  Er22  1  0.201923  0.354693  0.004784  1
  Er  Er23  1  0.298077  0.145307  0.504784  1
  Er  Er24  1  0.727124  0.962525  0.205134  1
  Er  Er25  1  0.772876  0.537475  0.705134  1
  Er  Er26  1  0.142421  0.913253  0.072258  1
  Er  Er27  1  0.357579  0.586747  0.572258  1
  Er  Er28  1  0.857579  0.086747  0.927742  1
  Er  Er29  1  0.642421  0.413253  0.427742  1
  Er  Er30  1  0.075461  0.325070  0.699375  1
  Er  Er31  1  0.424539  0.174930  0.199375  1
  Er  Er32  1  0.924539  0.674930  0.300625  1
  Er  Er33  1  0.575461  0.825070  0.800625  1
  Er  Er34  1  0.427415  0.696527  0.070909  1
  Er  Er35  1  0.072585  0.803473  0.570909  1
  Er  Er36  1  0.572585  0.303473  0.929091  1
  Er  Er37  1  0.927415  0.196527  0.429091  1
