# generated using pymatgen
data_Er(BRh)4
_symmetry_space_group_name_H-M   'P 1'
_cell_length_a   5.33630442
_cell_length_b   5.33630442
_cell_length_c   7.44528017
_cell_angle_alpha   90.00000000
_cell_angle_beta   90.00000000
_cell_angle_gamma   90.00000000
_symmetry_Int_Tables_number   1
_chemical_formula_structural   Er(BRh)4
_chemical_formula_sum   'Er2 B8 Rh8'
_cell_volume   212.01287667
_cell_formula_units_Z   2
loop_
 _symmetry_equiv_pos_site_id
 _symmetry_equiv_pos_as_xyz
  1  'x, y, z'
loop_
 _atom_site_type_symbol
 _atom_site_label
 _atom_site_symmetry_multiplicity
 _atom_site_fract_x
 _atom_site_fract_y
 _atom_site_fract_z
 _atom_site_occupancy
  B  B0  1  0.918591  0.750000  0.398840  1
  B  B1  1  0.581409  0.750000  0.398840  1
  B  B2  1  0.750000  0.918591  0.898840  1
  B  B3  1  0.081409  0.250000  0.601160  1
  B  B4  1  0.418591  0.250000  0.601160  1
  B  B5  1  0.250000  0.081409  0.101160  1
  B  B6  1  0.250000  0.418591  0.101160  1
  B  B7  1  0.750000  0.581409  0.898840  1
  Rh  Rh8  1  0.498583  0.750000  0.104391  1
  Rh  Rh9  1  0.001417  0.750000  0.104391  1
  Rh  Rh10  1  0.750000  0.001417  0.604391  1
  Rh  Rh11  1  0.998583  0.250000  0.895609  1
  Rh  Rh12  1  0.501417  0.250000  0.895609  1
  Rh  Rh13  1  0.250000  0.998583  0.395609  1
  Rh  Rh14  1  0.250000  0.501417  0.395609  1
  Rh  Rh15  1  0.750000  0.498583  0.604391  1
  Er  Er16  1  0.250000  0.750000  0.750000  1
  Er  Er17  1  0.750000  0.250000  0.250000  1
