# generated using pymatgen
data_ErCrO4
_symmetry_space_group_name_H-M   'P 1'
_cell_length_a   5.95011529
_cell_length_b   5.95011530
_cell_length_c   5.95011530
_cell_angle_alpha   106.04170570
_cell_angle_beta   106.04170576
_cell_angle_gamma   116.57225356
_symmetry_Int_Tables_number   1
_chemical_formula_structural   ErCrO4
_chemical_formula_sum   'Er2 Cr2 O8'
_cell_volume   160.27361178
_cell_formula_units_Z   2
loop_
 _symmetry_equiv_pos_site_id
 _symmetry_equiv_pos_as_xyz
  1  'x, y, z'
loop_
 _atom_site_type_symbol
 _atom_site_label
 _atom_site_symmetry_multiplicity
 _atom_site_fract_x
 _atom_site_fract_y
 _atom_site_fract_z
 _atom_site_occupancy
  O  O0  1  0.801148  0.736206  0.435058  1
  O  O1  1  0.366090  0.801148  0.564942  1
  O  O2  1  0.736206  0.801148  0.935058  1
  O  O3  1  0.801148  0.366090  0.064942  1
  O  O4  1  0.633910  0.198852  0.435058  1
  O  O5  1  0.198852  0.263794  0.564942  1
  O  O6  1  0.198852  0.633910  0.935058  1
  O  O7  1  0.263794  0.198852  0.064942  1
  Cr  Cr8  1  0.375000  0.625000  0.750000  1
  Cr  Cr9  1  0.625000  0.375000  0.250000  1
  Er  Er10  1  0.125000  0.875000  0.250000  1
  Er  Er11  1  0.875000  0.125000  0.750000  1
