# generated using pymatgen
data_Er(CuO2)2
_symmetry_space_group_name_H-M   'P 1'
_cell_length_a   5.65646060
_cell_length_b   5.65653491
_cell_length_c   6.24651363
_cell_angle_alpha   116.89366007
_cell_angle_beta   116.89327760
_cell_angle_gamma   90.05559534
_symmetry_Int_Tables_number   1
_chemical_formula_structural   Er(CuO2)2
_chemical_formula_sum   'Er2 Cu4 O8'
_cell_volume   153.56881074
_cell_formula_units_Z   2
loop_
 _symmetry_equiv_pos_site_id
 _symmetry_equiv_pos_as_xyz
  1  'x, y, z'
loop_
 _atom_site_type_symbol
 _atom_site_label
 _atom_site_symmetry_multiplicity
 _atom_site_fract_x
 _atom_site_fract_y
 _atom_site_fract_z
 _atom_site_occupancy
  O  O0  1  0.722584  0.528789  0.855410  1
  O  O1  1  0.132827  0.826622  0.855410  1
  O  O2  1  0.277416  0.471211  0.144590  1
  O  O3  1  0.867173  0.173378  0.144590  1
  O  O4  1  0.529178  0.132961  0.355348  1
  O  O5  1  0.826170  0.722387  0.355348  1
  O  O6  1  0.173830  0.277613  0.644652  1
  O  O7  1  0.470822  0.867039  0.644652  1
  Cu  Cu8  1  0.500000  0.000000  0.000000  1
  Cu  Cu9  1  0.500000  0.500000  0.000000  1
  Cu  Cu10  1  0.000000  0.500000  0.500000  1
  Cu  Cu11  1  0.500000  0.500000  0.500000  1
  Er  Er12  1  0.874989  0.124989  0.749978  1
  Er  Er13  1  0.125011  0.875011  0.250022  1
