# generated using pymatgen
data_Er2Mo2C3
_symmetry_space_group_name_H-M   'P 1'
_cell_length_a   3.32855125
_cell_length_b   5.68890421
_cell_length_c   6.05543444
_cell_angle_alpha   110.95348860
_cell_angle_beta   105.95247970
_cell_angle_gamma   90.00000002
_symmetry_Int_Tables_number   1
_chemical_formula_structural   Er2Mo2C3
_chemical_formula_sum   'Er2 Mo2 C3'
_cell_volume   102.33951425
_cell_formula_units_Z   1
loop_
 _symmetry_equiv_pos_site_id
 _symmetry_equiv_pos_as_xyz
  1  'x, y, z'
loop_
 _atom_site_type_symbol
 _atom_site_label
 _atom_site_symmetry_multiplicity
 _atom_site_fract_x
 _atom_site_fract_y
 _atom_site_fract_z
 _atom_site_occupancy
  C  C0  1  0.752345  0.264520  0.504689  1
  C  C1  1  0.247655  0.735480  0.495311  1
  C  C2  1  0.000000  0.000000  0.000000  1
  Mo  Mo3  1  0.156641  0.326586  0.313282  1
  Mo  Mo4  1  0.843359  0.673414  0.686718  1
  Er  Er5  1  0.389409  0.173071  0.778817  1
  Er  Er6  1  0.610591  0.826929  0.221183  1
