# generated using pymatgen
data_Er(ReO4)3
_symmetry_space_group_name_H-M   'P 1'
_cell_length_a   8.94962531
_cell_length_b   8.94961115
_cell_length_c   10.17996769
_cell_angle_alpha   63.91944171
_cell_angle_beta   116.08019953
_cell_angle_gamma   119.99807032
_symmetry_Int_Tables_number   1
_chemical_formula_structural   Er(ReO4)3
_chemical_formula_sum   'Er2 Re6 O24'
_cell_volume   608.39044833
_cell_formula_units_Z   2
loop_
 _symmetry_equiv_pos_site_id
 _symmetry_equiv_pos_as_xyz
  1  'x, y, z'
loop_
 _atom_site_type_symbol
 _atom_site_label
 _atom_site_symmetry_multiplicity
 _atom_site_fract_x
 _atom_site_fract_y
 _atom_site_fract_z
 _atom_site_occupancy
  Er  Er0  1  0.939792  0.060189  0.819413  1
  Er  Er1  1  0.439816  0.560206  0.319425  1
  Re  Re2  1  0.803841  0.459213  0.504163  1
  Re  Re3  1  0.540733  0.840432  0.504190  1
  Re  Re4  1  0.159573  0.196185  0.504210  1
  Re  Re5  1  0.659567  0.959265  0.004194  1
  Re  Re6  1  0.303821  0.340433  0.004214  1
  Re  Re7  1  0.040797  0.696156  0.004167  1
  O  O8  1  0.914344  0.487234  0.972907  1
  O  O9  1  0.545966  0.085725  0.973018  1
  O  O10  1  0.512790  0.454134  0.973006  1
  O  O11  1  0.605475  0.913146  0.834794  1
  O  O12  1  0.807002  0.255601  0.651421  1
  O  O13  1  0.012768  0.585660  0.472909  1
  O  O14  1  0.744315  0.899924  0.651498  1
  O  O15  1  0.729051  0.587770  0.534254  1
  O  O16  1  0.142544  0.394598  0.834757  1
  O  O17  1  0.086909  0.857555  0.834779  1
  O  O18  1  0.412235  0.606954  0.534310  1
  O  O19  1  0.392988  0.270899  0.534313  1
  O  O20  1  0.642443  0.413096  0.334778  1
  O  O21  1  0.414267  0.954033  0.473015  1
  O  O22  1  0.586855  0.894525  0.334794  1
  O  O23  1  0.099949  0.192981  0.651423  1
  O  O24  1  0.912231  0.770946  0.034255  1
  O  O25  1  0.893050  0.087761  0.034317  1
  O  O26  1  0.045866  0.987206  0.473007  1
  O  O27  1  0.600077  0.755684  0.151497  1
  O  O28  1  0.105401  0.357453  0.334759  1
  O  O29  1  0.307017  0.400048  0.151422  1
  O  O30  1  0.244400  0.693000  0.151421  1
  O  O31  1  0.229096  0.107009  0.034312  1
