# generated using pymatgen
data_ErTa7O19
_symmetry_space_group_name_H-M   'P 1'
_cell_length_a   6.25785500
_cell_length_b   6.25787950
_cell_length_c   20.06707362
_cell_angle_alpha   89.99981701
_cell_angle_beta   90.00009271
_cell_angle_gamma   120.00015663
_symmetry_Int_Tables_number   1
_chemical_formula_structural   ErTa7O19
_chemical_formula_sum   'Er2 Ta14 O38'
_cell_volume   680.56041184
_cell_formula_units_Z   2
loop_
 _symmetry_equiv_pos_site_id
 _symmetry_equiv_pos_as_xyz
  1  'x, y, z'
loop_
 _atom_site_type_symbol
 _atom_site_label
 _atom_site_symmetry_multiplicity
 _atom_site_fract_x
 _atom_site_fract_y
 _atom_site_fract_z
 _atom_site_occupancy
  Er  Er0  1  0.333279  0.666658  0.999983  1
  Er  Er1  1  0.333286  0.666603  0.499996  1
  Ta  Ta2  1  0.360372  0.360490  0.155241  1
  Ta  Ta3  1  0.360360  0.360487  0.344760  1
  Ta  Ta4  1  0.639529  0.639640  0.844760  1
  Ta  Ta5  1  0.639527  0.639644  0.655238  1
  Ta  Ta6  1  0.360368  0.999884  0.655234  1
  Ta  Ta7  1  0.360378  0.999882  0.844756  1
  Ta  Ta8  1  0.666655  0.333328  0.500000  1
  Ta  Ta9  1  0.666654  0.333321  0.000002  1
  Ta  Ta10  1  0.639522  0.999876  0.155243  1
  Ta  Ta11  1  0.639523  0.999876  0.344766  1
  Ta  Ta12  1  0.000124  0.639641  0.155243  1
  Ta  Ta13  1  0.000132  0.639646  0.344764  1
  Ta  Ta14  1  0.000130  0.360482  0.844759  1
  Ta  Ta15  1  0.000126  0.360480  0.655238  1
  O  O16  1  0.999622  0.752472  0.846961  1
  O  O17  1  0.999624  0.752482  0.653038  1
  O  O18  1  0.042629  0.626414  0.249997  1
  O  O19  1  0.247527  0.000383  0.346965  1
  O  O20  1  0.247529  0.000390  0.153037  1
  O  O21  1  0.042640  0.416226  0.750000  1
  O  O22  1  0.999617  0.247141  0.153037  1
  O  O23  1  0.999622  0.247159  0.346968  1
  O  O24  1  0.373599  0.957375  0.750001  1
  O  O25  1  0.333336  0.666670  0.130586  1
  O  O26  1  0.333338  0.666669  0.869419  1
  O  O27  1  0.333334  0.666658  0.630583  1
  O  O28  1  0.333338  0.666666  0.369420  1
  O  O29  1  0.583790  0.957377  0.250000  1
  O  O30  1  0.247530  0.247144  0.653037  1
  O  O31  1  0.247525  0.247142  0.846962  1
  O  O32  1  0.373592  0.416226  0.249997  1
  O  O33  1  0.427058  0.384519  0.055245  1
  O  O34  1  0.427055  0.384514  0.444754  1
  O  O35  1  0.752848  0.000383  0.846966  1
  O  O36  1  0.752851  0.000385  0.653031  1
  O  O37  1  0.583785  0.626415  0.750004  1
  O  O38  1  0.615483  0.572933  0.555250  1
  O  O39  1  0.615483  0.572938  0.944753  1
  O  O40  1  0.752848  0.752462  0.153037  1
  O  O41  1  0.752860  0.752479  0.346962  1
  O  O42  1  0.427053  0.042539  0.555248  1
  O  O43  1  0.427054  0.042541  0.944753  1
  O  O44  1  0.666674  0.333338  0.333975  1
  O  O45  1  0.666679  0.333345  0.666025  1
  O  O46  1  0.666672  0.333338  0.833973  1
  O  O47  1  0.666674  0.333342  0.166028  1
  O  O48  1  0.615476  0.042546  0.055250  1
  O  O49  1  0.615481  0.042549  0.444755  1
  O  O50  1  0.957451  0.572930  0.055246  1
  O  O51  1  0.957447  0.572938  0.444754  1
  O  O52  1  0.957452  0.384517  0.944751  1
  O  O53  1  0.957458  0.384517  0.555249  1
