# generated using pymatgen
data_ErTa3O9
_symmetry_space_group_name_H-M   'P 1'
_cell_length_a   5.27336500
_cell_length_b   7.51807597
_cell_length_c   8.31060195
_cell_angle_alpha   90.00000000
_cell_angle_beta   92.45575285
_cell_angle_gamma   90.00000000
_symmetry_Int_Tables_number   1
_chemical_formula_structural   ErTa3O9
_chemical_formula_sum   'Er2 Ta6 O18'
_cell_volume   329.17586745
_cell_formula_units_Z   2
loop_
 _symmetry_equiv_pos_site_id
 _symmetry_equiv_pos_as_xyz
  1  'x, y, z'
loop_
 _atom_site_type_symbol
 _atom_site_label
 _atom_site_symmetry_multiplicity
 _atom_site_fract_x
 _atom_site_fract_y
 _atom_site_fract_z
 _atom_site_occupancy
  Er  Er0  1  0.036364  0.750000  0.435454  1
  Er  Er1  1  0.963636  0.250000  0.564546  1
  Ta  Ta2  1  0.000000  0.000000  0.000000  1
  Ta  Ta3  1  0.000000  0.500000  0.000000  1
  Ta  Ta4  1  0.469559  0.993098  0.694964  1
  Ta  Ta5  1  0.469559  0.506902  0.694964  1
  Ta  Ta6  1  0.530441  0.006902  0.305036  1
  Ta  Ta7  1  0.530441  0.493098  0.305036  1
  O  O8  1  0.094604  0.750000  0.977193  1
  O  O9  1  0.147083  0.065775  0.783860  1
  O  O10  1  0.147083  0.434225  0.783860  1
  O  O11  1  0.255644  0.043299  0.467383  1
  O  O12  1  0.255644  0.456701  0.467383  1
  O  O13  1  0.334647  0.750000  0.653318  1
  O  O14  1  0.326898  0.052140  0.120930  1
  O  O15  1  0.326898  0.447860  0.120930  1
  O  O16  1  0.419265  0.750000  0.316160  1
  O  O17  1  0.580735  0.250000  0.683840  1
  O  O18  1  0.673102  0.947860  0.879070  1
  O  O19  1  0.673102  0.552140  0.879070  1
  O  O20  1  0.665353  0.250000  0.346682  1
  O  O21  1  0.744356  0.956701  0.532617  1
  O  O22  1  0.744356  0.543299  0.532617  1
  O  O23  1  0.852917  0.934225  0.216140  1
  O  O24  1  0.852917  0.565775  0.216140  1
  O  O25  1  0.905396  0.250000  0.022807  1
