# generated using pymatgen
data_Cd3(Pt3O4)10
_symmetry_space_group_name_H-M   'P 1'
_cell_length_a   5.71540231
_cell_length_b   20.70395406
_cell_length_c   8.11311789
_cell_angle_alpha   78.62606473
_cell_angle_beta   90.00000000
_cell_angle_gamma   90.00000000
_symmetry_Int_Tables_number   1
_chemical_formula_structural   Cd3(Pt3O4)10
_chemical_formula_sum   'Cd3 Pt30 O40'
_cell_volume   941.18264424
_cell_formula_units_Z   1
loop_
 _symmetry_equiv_pos_site_id
 _symmetry_equiv_pos_as_xyz
  1  'x, y, z'
loop_
 _atom_site_type_symbol
 _atom_site_label
 _atom_site_symmetry_multiplicity
 _atom_site_fract_x
 _atom_site_fract_y
 _atom_site_fract_z
 _atom_site_occupancy
  Cd  Cd0  1  0.500000  0.200000  0.900000  1
  Cd  Cd1  1  0.500000  0.598764  0.700175  1
  Cd  Cd2  1  0.500000  0.801236  0.099825  1
  Pt  Pt3  1  0.753578  0.902452  0.795360  1
  Pt  Pt4  1  0.753478  0.301245  0.595932  1
  Pt  Pt5  1  0.753478  0.098755  0.204068  1
  Pt  Pt6  1  0.757428  0.700000  0.400000  1
  Pt  Pt7  1  0.753578  0.497548  0.004640  1
  Pt  Pt8  1  0.500000  0.851441  0.454739  1
  Pt  Pt9  1  0.500000  0.352074  0.949756  1
  Pt  Pt10  1  0.500000  0.548559  0.345261  1
  Pt  Pt11  1  0.500000  0.047926  0.850244  1
  Pt  Pt12  1  0.500000  0.149500  0.544521  1
  Pt  Pt13  1  0.500000  0.752156  0.744568  1
  Pt  Pt14  1  0.500000  0.250500  0.255479  1
  Pt  Pt15  1  0.500000  0.647844  0.055432  1
  Pt  Pt16  1  0.500000  0.952873  0.150018  1
  Pt  Pt17  1  0.500000  0.447127  0.649982  1
  Pt  Pt18  1  0.246522  0.098755  0.204068  1
  Pt  Pt19  1  0.246422  0.497548  0.004640  1
  Pt  Pt20  1  0.246422  0.902452  0.795360  1
  Pt  Pt21  1  0.246522  0.301245  0.595932  1
  Pt  Pt22  1  0.242572  0.700000  0.400000  1
  Pt  Pt23  1  0.000000  0.650415  0.804398  1
  Pt  Pt24  1  0.000000  0.547266  0.597857  1
  Pt  Pt25  1  0.000000  0.148425  0.796591  1
  Pt  Pt26  1  0.000000  0.950672  0.400002  1
  Pt  Pt27  1  0.000000  0.449328  0.399998  1
  Pt  Pt28  1  0.000000  0.852734  0.202143  1
  Pt  Pt29  1  0.000000  0.050114  0.598994  1
  Pt  Pt30  1  0.000000  0.749585  0.995602  1
  Pt  Pt31  1  0.000000  0.349886  0.201006  1
  Pt  Pt32  1  0.000000  0.251575  0.003409  1
  O  O33  1  0.740659  0.102615  0.948758  1
  O  O34  1  0.752444  0.000660  0.748820  1
  O  O35  1  0.740659  0.297385  0.851242  1
  O  O36  1  0.740524  0.199995  0.656328  1
  O  O37  1  0.740190  0.501773  0.749236  1
  O  O38  1  0.740810  0.598504  0.943568  1
  O  O39  1  0.740810  0.801496  0.856432  1
  O  O40  1  0.741592  0.696357  0.652135  1
  O  O41  1  0.754016  0.900287  0.549704  1
  O  O42  1  0.752574  0.000252  0.250526  1
  O  O43  1  0.752370  0.099778  0.450101  1
  O  O44  1  0.752574  0.399748  0.549474  1
  O  O45  1  0.752370  0.300222  0.349899  1
  O  O46  1  0.740524  0.200005  0.143672  1
  O  O47  1  0.741528  0.599022  0.457237  1
  O  O48  1  0.754016  0.499713  0.250296  1
  O  O49  1  0.752444  0.399340  0.051180  1
  O  O50  1  0.741592  0.703643  0.147865  1
  O  O51  1  0.741528  0.800978  0.342763  1
  O  O52  1  0.740190  0.898227  0.050764  1
  O  O53  1  0.259190  0.598504  0.943568  1
  O  O54  1  0.258408  0.696357  0.652135  1
  O  O55  1  0.245984  0.499713  0.250296  1
  O  O56  1  0.259341  0.102615  0.948758  1
  O  O57  1  0.259341  0.297385  0.851242  1
  O  O58  1  0.247426  0.399748  0.549474  1
  O  O59  1  0.259476  0.200005  0.143672  1
  O  O60  1  0.247556  0.000660  0.748820  1
  O  O61  1  0.259476  0.199995  0.656328  1
  O  O62  1  0.247630  0.099778  0.450101  1
  O  O63  1  0.259810  0.898227  0.050764  1
  O  O64  1  0.259190  0.801496  0.856432  1
  O  O65  1  0.259810  0.501773  0.749236  1
  O  O66  1  0.245984  0.900287  0.549704  1
  O  O67  1  0.258472  0.599022  0.457237  1
  O  O68  1  0.247556  0.399340  0.051180  1
  O  O69  1  0.258472  0.800978  0.342763  1
  O  O70  1  0.258408  0.703643  0.147865  1
  O  O71  1  0.247426  0.000252  0.250526  1
  O  O72  1  0.247630  0.300222  0.349899  1
