# generated using pymatgen
data_ErVO4
_symmetry_space_group_name_H-M   'P 1'
_cell_length_a   5.05963009
_cell_length_b   5.05959226
_cell_length_c   6.64362176
_cell_angle_alpha   112.38138606
_cell_angle_beta   112.38066885
_cell_angle_gamma   90.00035943
_symmetry_Int_Tables_number   1
_chemical_formula_structural   ErVO4
_chemical_formula_sum   'Er2 V2 O8'
_cell_volume   143.31088971
_cell_formula_units_Z   2
loop_
 _symmetry_equiv_pos_site_id
 _symmetry_equiv_pos_as_xyz
  1  'x, y, z'
loop_
 _atom_site_type_symbol
 _atom_site_label
 _atom_site_symmetry_multiplicity
 _atom_site_fract_x
 _atom_site_fract_y
 _atom_site_fract_z
 _atom_site_occupancy
  O  O0  1  0.943514  0.800606  0.587528  1
  O  O1  1  0.786936  0.443521  0.087522  1
  O  O2  1  0.300598  0.143962  0.087519  1
  O  O3  1  0.643970  0.286958  0.587533  1
  O  O4  1  0.356030  0.713042  0.412467  1
  O  O5  1  0.699402  0.856038  0.912481  1
  O  O6  1  0.213064  0.556479  0.912478  1
  O  O7  1  0.056487  0.199394  0.412472  1
  V  V8  1  0.874989  0.625010  0.750009  1
  V  V9  1  0.125011  0.374990  0.249991  1
  Er  Er10  1  0.374990  0.125002  0.750003  1
  Er  Er11  1  0.625010  0.874998  0.249997  1
