# generated using pymatgen
data_ErCo3
_symmetry_space_group_name_H-M   'P 1'
_cell_length_a   8.58774285
_cell_length_b   8.58774232
_cell_length_c   8.58774213
_cell_angle_alpha   33.46519659
_cell_angle_beta   33.46520239
_cell_angle_gamma   33.46520009
_symmetry_Int_Tables_number   1
_chemical_formula_structural   ErCo3
_chemical_formula_sum   'Er3 Co9'
_cell_volume   171.51245645
_cell_formula_units_Z   3
loop_
 _symmetry_equiv_pos_site_id
 _symmetry_equiv_pos_as_xyz
  1  'x, y, z'
loop_
 _atom_site_type_symbol
 _atom_site_label
 _atom_site_symmetry_multiplicity
 _atom_site_fract_x
 _atom_site_fract_y
 _atom_site_fract_z
 _atom_site_occupancy
  Er  Er0  1  0.860534  0.860534  0.860534  1
  Er  Er1  1  0.139466  0.139466  0.139466  1
  Er  Er2  1  0.000000  0.000000  0.000000  1
  Co  Co3  1  0.921110  0.417263  0.417263  1
  Co  Co4  1  0.334964  0.334964  0.334964  1
  Co  Co5  1  0.665036  0.665036  0.665036  1
  Co  Co6  1  0.582737  0.582737  0.078890  1
  Co  Co7  1  0.078890  0.582737  0.582737  1
  Co  Co8  1  0.417263  0.417263  0.921110  1
  Co  Co9  1  0.582737  0.078890  0.582737  1
  Co  Co10  1  0.417263  0.921110  0.417263  1
  Co  Co11  1  0.500000  0.500000  0.500000  1
