# generated using pymatgen
data_ErNi3
_symmetry_space_group_name_H-M   'P 1'
_cell_length_a   4.92990213
_cell_length_b   4.92990213
_cell_length_c   8.55003008
_cell_angle_alpha   73.24395157
_cell_angle_beta   73.24395157
_cell_angle_gamma   59.99999284
_symmetry_Int_Tables_number   1
_chemical_formula_structural   ErNi3
_chemical_formula_sum   'Er3 Ni9'
_cell_volume   169.69520293
_cell_formula_units_Z   3
loop_
 _symmetry_equiv_pos_site_id
 _symmetry_equiv_pos_as_xyz
  1  'x, y, z'
loop_
 _atom_site_type_symbol
 _atom_site_label
 _atom_site_symmetry_multiplicity
 _atom_site_fract_x
 _atom_site_fract_y
 _atom_site_fract_z
 _atom_site_occupancy
  Er  Er0  1  -0.000000  0.000000  0.000000  1
  Er  Er1  1  0.138609  0.138609  0.584173  1
  Er  Er2  1  0.861391  0.861391  0.415827  1
  Ni  Ni3  1  0.500000  0.500000  0.500000  1
  Ni  Ni4  1  0.333113  0.333113  0.000662  1
  Ni  Ni5  1  0.666887  0.666887  0.999338  1
  Ni  Ni6  1  0.080705  0.583060  0.753176  1
  Ni  Ni7  1  0.583060  0.583060  0.753176  1
  Ni  Ni8  1  0.583060  0.080705  0.753176  1
  Ni  Ni9  1  0.919295  0.416940  0.246824  1
  Ni  Ni10  1  0.416940  0.416940  0.246824  1
  Ni  Ni11  1  0.416940  0.919295  0.246824  1
