# generated using pymatgen
data_Er10W2O21
_symmetry_space_group_name_H-M   'P 1'
_cell_length_a   10.52108772
_cell_length_b   10.60351151
_cell_length_c   15.90663924
_cell_angle_alpha   90.00000000
_cell_angle_beta   90.00000000
_cell_angle_gamma   90.00000000
_symmetry_Int_Tables_number   1
_chemical_formula_structural   Er10W2O21
_chemical_formula_sum   'Er40 W8 O84'
_cell_volume   1774.55222508
_cell_formula_units_Z   4
loop_
 _symmetry_equiv_pos_site_id
 _symmetry_equiv_pos_as_xyz
  1  'x, y, z'
loop_
 _atom_site_type_symbol
 _atom_site_label
 _atom_site_symmetry_multiplicity
 _atom_site_fract_x
 _atom_site_fract_y
 _atom_site_fract_z
 _atom_site_occupancy
  Er  Er0  1  0.748359  0.626051  0.271877  1
  Er  Er1  1  0.486081  0.857883  0.242996  1
  Er  Er2  1  0.486081  0.642117  0.757004  1
  Er  Er3  1  0.478966  0.390376  0.910426  1
  Er  Er4  1  0.249987  0.342188  0.099474  1
  Er  Er5  1  0.250013  0.842188  0.400526  1
  Er  Er6  1  0.750013  0.657812  0.900526  1
  Er  Er7  1  0.478966  0.109624  0.089574  1
  Er  Er8  1  0.488794  0.364889  0.580509  1
  Er  Er9  1  0.521034  0.609624  0.089574  1
  Er  Er10  1  0.011206  0.864889  0.919491  1
  Er  Er11  1  0.521034  0.890376  0.910426  1
  Er  Er12  1  0.251641  0.126051  0.271877  1
  Er  Er13  1  0.251641  0.373949  0.728123  1
  Er  Er14  1  0.011206  0.635111  0.080509  1
  Er  Er15  1  0.513919  0.357883  0.242996  1
  Er  Er16  1  0.978966  0.109624  0.410426  1
  Er  Er17  1  0.750013  0.842188  0.099474  1
  Er  Er18  1  0.249987  0.157812  0.900526  1
  Er  Er19  1  0.511206  0.864889  0.580509  1
  Er  Er20  1  0.986081  0.857883  0.257004  1
  Er  Er21  1  0.749987  0.157812  0.599474  1
  Er  Er22  1  0.021034  0.890376  0.589574  1
  Er  Er23  1  0.511206  0.635111  0.419491  1
  Er  Er24  1  0.751641  0.373949  0.771877  1
  Er  Er25  1  0.978966  0.390376  0.589574  1
  Er  Er26  1  0.748359  0.873949  0.728123  1
  Er  Er27  1  0.988794  0.135111  0.080509  1
  Er  Er28  1  0.021034  0.609624  0.410426  1
  Er  Er29  1  0.749987  0.342188  0.400526  1
  Er  Er30  1  0.250013  0.657812  0.599474  1
  Er  Er31  1  0.513919  0.142117  0.757004  1
  Er  Er32  1  0.986081  0.642117  0.742996  1
  Er  Er33  1  0.013919  0.357883  0.257004  1
  Er  Er34  1  0.988794  0.364889  0.919491  1
  Er  Er35  1  0.248359  0.873949  0.771877  1
  Er  Er36  1  0.751641  0.126051  0.228123  1
  Er  Er37  1  0.488794  0.135111  0.419491  1
  Er  Er38  1  0.248359  0.626051  0.228123  1
  Er  Er39  1  0.013919  0.142117  0.742996  1
  W  W40  1  0.248404  0.123231  0.585959  1
  W  W41  1  0.751596  0.876769  0.414041  1
  W  W42  1  0.748404  0.376769  0.085959  1
  W  W43  1  0.248404  0.376769  0.414041  1
  W  W44  1  0.251596  0.623231  0.914041  1
  W  W45  1  0.748404  0.123231  0.914041  1
  W  W46  1  0.751596  0.623231  0.585959  1
  W  W47  1  0.251596  0.876769  0.085959  1
  O  O48  1  0.613273  0.250000  0.500000  1
  O  O49  1  0.186533  0.016396  0.671815  1
  O  O50  1  0.892937  0.489791  0.329055  1
  O  O51  1  0.128786  0.785032  0.157779  1
  O  O52  1  0.392937  0.489791  0.170945  1
  O  O53  1  0.121833  0.728612  0.321151  1
  O  O54  1  0.621833  0.771388  0.821151  1
  O  O55  1  0.371127  0.749509  0.133518  1
  O  O56  1  0.877214  0.554974  0.512193  1
  O  O57  1  0.107063  0.510209  0.670945  1
  O  O58  1  0.871127  0.749509  0.366482  1
  O  O59  1  0.128873  0.250491  0.633518  1
  O  O60  1  0.371127  0.750491  0.866482  1
  O  O61  1  0.313467  0.516396  0.828185  1
  O  O62  1  0.879312  0.479479  0.041884  1
  O  O63  1  0.620688  0.979479  0.458116  1
  O  O64  1  0.120340  0.285668  0.822416  1
  O  O65  1  0.879660  0.785668  0.822416  1
  O  O66  1  0.385350  0.992630  0.342063  1
  O  O67  1  0.386727  0.750000  0.500000  1
  O  O68  1  0.607063  0.989791  0.170945  1
  O  O69  1  0.379312  0.479479  0.458116  1
  O  O70  1  0.187937  0.750000  0.000000  1
  O  O71  1  0.686533  0.016396  0.828185  1
  O  O72  1  0.120688  0.979479  0.041884  1
  O  O73  1  0.871214  0.214968  0.842221  1
  O  O74  1  0.371214  0.214968  0.657779  1
  O  O75  1  0.186533  0.483604  0.328185  1
  O  O76  1  0.120340  0.214332  0.177584  1
  O  O77  1  0.378167  0.271388  0.821151  1
  O  O78  1  0.128786  0.714968  0.842221  1
  O  O79  1  0.107063  0.989791  0.329055  1
  O  O80  1  0.379312  0.020521  0.541884  1
  O  O81  1  0.620688  0.520521  0.541884  1
  O  O82  1  0.392937  0.010209  0.829055  1
  O  O83  1  0.377214  0.554974  0.987807  1
  O  O84  1  0.879660  0.714332  0.177584  1
  O  O85  1  0.614650  0.007370  0.657937  1
  O  O86  1  0.687937  0.750000  0.500000  1
  O  O87  1  0.312063  0.250000  0.500000  1
  O  O88  1  0.871214  0.285032  0.157779  1
  O  O89  1  0.114650  0.007370  0.842063  1
  O  O90  1  0.385350  0.507370  0.657937  1
  O  O91  1  0.813467  0.516396  0.671815  1
  O  O92  1  0.871127  0.750491  0.633518  1
  O  O93  1  0.892937  0.010209  0.670945  1
  O  O94  1  0.622786  0.445026  0.012193  1
  O  O95  1  0.880761  0.250000  0.500000  1
  O  O96  1  0.120688  0.520521  0.958116  1
  O  O97  1  0.812063  0.250000  0.000000  1
  O  O98  1  0.379660  0.785668  0.677584  1
  O  O99  1  0.628873  0.250491  0.866482  1
  O  O100  1  0.614650  0.492630  0.342063  1
  O  O101  1  0.877214  0.945026  0.487807  1
  O  O102  1  0.128873  0.249509  0.366482  1
  O  O103  1  0.114650  0.492630  0.157937  1
  O  O104  1  0.121833  0.771388  0.678849  1
  O  O105  1  0.686533  0.483604  0.171815  1
  O  O106  1  0.620340  0.285668  0.677584  1
  O  O107  1  0.813467  0.983604  0.328185  1
  O  O108  1  0.886727  0.750000  0.000000  1
  O  O109  1  0.378167  0.228612  0.178849  1
  O  O110  1  0.371214  0.285032  0.342221  1
  O  O111  1  0.885350  0.507370  0.842063  1
  O  O112  1  0.879312  0.020521  0.958116  1
  O  O113  1  0.122786  0.054974  0.512193  1
  O  O114  1  0.377214  0.945026  0.012193  1
  O  O115  1  0.885350  0.992630  0.157937  1
  O  O116  1  0.621833  0.728612  0.178849  1
  O  O117  1  0.878167  0.228612  0.321151  1
  O  O118  1  0.622786  0.054974  0.987807  1
  O  O119  1  0.607063  0.510209  0.829055  1
  O  O120  1  0.113273  0.250000  0.000000  1
  O  O121  1  0.619239  0.750000  0.000000  1
  O  O122  1  0.620340  0.214332  0.322416  1
  O  O123  1  0.379660  0.714332  0.322416  1
  O  O124  1  0.878167  0.271388  0.678849  1
  O  O125  1  0.122786  0.445026  0.487807  1
  O  O126  1  0.119239  0.750000  0.500000  1
  O  O127  1  0.313467  0.983604  0.171815  1
  O  O128  1  0.380761  0.250000  0.000000  1
  O  O129  1  0.628786  0.785032  0.342221  1
  O  O130  1  0.628786  0.714968  0.657779  1
  O  O131  1  0.628873  0.249509  0.133518  1
