# generated using pymatgen
data_Er(BRh)4
_symmetry_space_group_name_H-M   'P 1'
_cell_length_a   7.54246206
_cell_length_b   7.54246207
_cell_length_c   9.16373770
_cell_angle_alpha   114.30151879
_cell_angle_beta   114.30151881
_cell_angle_gamma   90.00000000
_symmetry_Int_Tables_number   1
_chemical_formula_structural   Er(BRh)4
_chemical_formula_sum   'Er4 B16 Rh16'
_cell_volume   423.92498887
_cell_formula_units_Z   4
loop_
 _symmetry_equiv_pos_site_id
 _symmetry_equiv_pos_as_xyz
  1  'x, y, z'
loop_
 _atom_site_type_symbol
 _atom_site_label
 _atom_site_symmetry_multiplicity
 _atom_site_fract_x
 _atom_site_fract_y
 _atom_site_fract_z
 _atom_site_occupancy
  B  B0  1  0.872438  0.654797  0.085720  1
  B  B1  1  0.569077  0.286718  0.414280  1
  B  B2  1  0.845203  0.627562  0.414280  1
  B  B3  1  0.286718  0.845203  0.914280  1
  B  B4  1  0.654797  0.213282  0.585720  1
  B  B5  1  0.213282  0.930923  0.085720  1
  B  B6  1  0.127562  0.345203  0.914280  1
  B  B7  1  0.430923  0.713282  0.585720  1
  B  B8  1  0.154797  0.372438  0.585720  1
  B  B9  1  0.713282  0.154797  0.085720  1
  B  B10  1  0.372438  0.430923  0.085720  1
  B  B11  1  0.069077  0.127562  0.414280  1
  B  B12  1  0.345203  0.786718  0.414280  1
  B  B13  1  0.786718  0.069077  0.914280  1
  B  B14  1  0.627562  0.569077  0.914280  1
  B  B15  1  0.930923  0.872438  0.585720  1
  Rh  Rh16  1  0.554430  0.842060  0.877065  1
  Rh  Rh17  1  0.842060  0.322635  0.377065  1
  Rh  Rh18  1  0.535004  0.554430  0.377065  1
  Rh  Rh19  1  0.177365  0.657940  0.122935  1
  Rh  Rh20  1  0.657940  0.945570  0.622935  1
  Rh  Rh21  1  0.945570  0.964996  0.122935  1
  Rh  Rh22  1  0.822635  0.342060  0.877065  1
  Rh  Rh23  1  0.464996  0.445570  0.622935  1
  Rh  Rh24  1  0.157940  0.677365  0.622935  1
  Rh  Rh25  1  0.445570  0.157940  0.122935  1
  Rh  Rh26  1  0.677365  0.464996  0.122935  1
  Rh  Rh27  1  0.035004  0.822635  0.377065  1
  Rh  Rh28  1  0.342060  0.054430  0.377065  1
  Rh  Rh29  1  0.054430  0.035004  0.877065  1
  Rh  Rh30  1  0.322635  0.535004  0.877065  1
  Rh  Rh31  1  0.964996  0.177365  0.622935  1
  Er  Er32  1  0.625000  0.875000  0.250000  1
  Er  Er33  1  0.875000  0.625000  0.750000  1
  Er  Er34  1  0.375000  0.125000  0.750000  1
  Er  Er35  1  0.125000  0.375000  0.250000  1
