# generated using pymatgen
data_ErCrB4
_symmetry_space_group_name_H-M   'P 1'
_cell_length_a   5.88903917
_cell_length_b   11.37877457
_cell_length_c   3.41092338
_cell_angle_alpha   90.00011003
_cell_angle_beta   90.00001399
_cell_angle_gamma   90.00043517
_symmetry_Int_Tables_number   1
_chemical_formula_structural   ErCrB4
_chemical_formula_sum   'Er4 Cr4 B16'
_cell_volume   228.56614333
_cell_formula_units_Z   4
loop_
 _symmetry_equiv_pos_site_id
 _symmetry_equiv_pos_as_xyz
  1  'x, y, z'
loop_
 _atom_site_type_symbol
 _atom_site_label
 _atom_site_symmetry_multiplicity
 _atom_site_fract_x
 _atom_site_fract_y
 _atom_site_fract_z
 _atom_site_occupancy
  Er  Er0  1  0.124731  0.150767  0.000011  1
  Er  Er1  1  0.875228  0.849392  0.000000  1
  Er  Er2  1  0.624674  0.349272  0.999991  1
  Er  Er3  1  0.375194  0.650616  0.999984  1
  Cr  Cr4  1  0.124622  0.418872  0.000007  1
  Cr  Cr5  1  0.875469  0.581001  0.999997  1
  Cr  Cr6  1  0.624615  0.081095  0.000002  1
  Cr  Cr7  1  0.375494  0.919020  0.000002  1
  B  B8  1  0.475207  0.192012  0.500002  1
  B  B9  1  0.524838  0.807968  0.499999  1
  B  B10  1  0.975172  0.307972  0.499999  1
  B  B11  1  0.024855  0.692041  0.500002  1
  B  B12  1  0.281618  0.315636  0.500003  1
  B  B13  1  0.718311  0.684386  0.500000  1
  B  B14  1  0.781605  0.184344  0.499998  1
  B  B15  1  0.218338  0.815626  0.500004  1
  B  B16  1  0.363305  0.467567  0.499999  1
  B  B17  1  0.636640  0.532388  0.500000  1
  B  B18  1  0.863309  0.032425  0.500000  1
  B  B19  1  0.136643  0.967615  0.500000  1
  B  B20  1  0.386346  0.047118  0.500000  1
  B  B21  1  0.613730  0.952951  0.500000  1
  B  B22  1  0.886341  0.452866  0.499998  1
  B  B23  1  0.113718  0.547050  0.499998  1
