# generated using pymatgen
data_Er2CuO4
_symmetry_space_group_name_H-M   'P 1'
_cell_length_a   5.46700230
_cell_length_b   6.48362760
_cell_length_c   5.47078153
_cell_angle_alpha   114.95409162
_cell_angle_beta   90.00000000
_cell_angle_gamma   90.00000000
_symmetry_Int_Tables_number   1
_chemical_formula_structural   Er2CuO4
_chemical_formula_sum   'Er4 Cu2 O8'
_cell_volume   175.81442251
_cell_formula_units_Z   2
loop_
 _symmetry_equiv_pos_site_id
 _symmetry_equiv_pos_as_xyz
  1  'x, y, z'
loop_
 _atom_site_type_symbol
 _atom_site_label
 _atom_site_symmetry_multiplicity
 _atom_site_fract_x
 _atom_site_fract_y
 _atom_site_fract_z
 _atom_site_occupancy
  Er  Er0  1  0.000000  0.310050  0.655026  1
  Er  Er1  1  0.000000  0.689950  0.344974  1
  Er  Er2  1  0.500000  0.689950  0.844974  1
  Er  Er3  1  0.500000  0.310050  0.155026  1
  Cu  Cu4  1  0.000000  0.000000  0.000000  1
  Cu  Cu5  1  0.500000  0.000000  0.500000  1
  O  O6  1  0.198236  1.000000  0.302485  1
  O  O7  1  0.250000  0.500000  0.990263  1
  O  O8  1  0.250000  0.500000  0.490263  1
  O  O9  1  0.301764  1.000000  0.802485  1
  O  O10  1  0.698236  0.000000  0.197515  1
  O  O11  1  0.750000  0.500000  0.509737  1
  O  O12  1  0.750000  0.500000  0.009737  1
  O  O13  1  0.801764  0.000000  0.697515  1
