# generated using pymatgen
data_Er2Fe17
_symmetry_space_group_name_H-M   'P 1'
_cell_length_a   8.18163527
_cell_length_b   8.50922741
_cell_length_c   8.50922741
_cell_angle_alpha   120.01302720
_cell_angle_beta   90.00000000
_cell_angle_gamma   90.00000000
_symmetry_Int_Tables_number   1
_chemical_formula_structural   Er2Fe17
_chemical_formula_sum   'Er4 Fe34'
_cell_volume   512.97238101
_cell_formula_units_Z   2
loop_
 _symmetry_equiv_pos_site_id
 _symmetry_equiv_pos_as_xyz
  1  'x, y, z'
loop_
 _atom_site_type_symbol
 _atom_site_label
 _atom_site_symmetry_multiplicity
 _atom_site_fract_x
 _atom_site_fract_y
 _atom_site_fract_z
 _atom_site_occupancy
  Er  Er0  1  0.750000  0.000046  0.999954  1
  Er  Er1  1  0.250000  0.999954  0.000046  1
  Er  Er2  1  0.250000  0.666765  0.333235  1
  Er  Er3  1  0.750000  0.333235  0.666765  1
  Fe  Fe4  1  0.605048  0.666692  0.333308  1
  Fe  Fe5  1  0.394952  0.333308  0.666692  1
  Fe  Fe6  1  0.105048  0.333308  0.666692  1
  Fe  Fe7  1  0.894952  0.666692  0.333308  1
  Fe  Fe8  1  0.500000  0.500000  0.000000  1
  Fe  Fe9  1  0.500000  0.500000  0.500000  1
  Fe  Fe10  1  0.500000  0.000000  0.500000  1
  Fe  Fe11  1  0.000000  0.500000  0.000000  1
  Fe  Fe12  1  0.000000  0.500000  0.500000  1
  Fe  Fe13  1  0.000000  0.000000  0.500000  1
  Fe  Fe14  1  0.750000  0.670775  0.038458  1
  Fe  Fe15  1  0.750000  0.367735  0.329193  1
  Fe  Fe16  1  0.750000  0.961584  0.632327  1
  Fe  Fe17  1  0.750000  0.367673  0.038416  1
  Fe  Fe18  1  0.750000  0.961542  0.329225  1
  Fe  Fe19  1  0.750000  0.670807  0.632265  1
  Fe  Fe20  1  0.250000  0.329225  0.961542  1
  Fe  Fe21  1  0.250000  0.632265  0.670807  1
  Fe  Fe22  1  0.250000  0.038416  0.367673  1
  Fe  Fe23  1  0.250000  0.632327  0.961584  1
  Fe  Fe24  1  0.250000  0.038458  0.670775  1
  Fe  Fe25  1  0.250000  0.329193  0.367735  1
  Fe  Fe26  1  0.483264  0.834173  0.668303  1
  Fe  Fe27  1  0.483252  0.834137  0.165863  1
  Fe  Fe28  1  0.483264  0.331697  0.165827  1
  Fe  Fe29  1  0.516736  0.165827  0.331697  1
  Fe  Fe30  1  0.516748  0.165863  0.834137  1
  Fe  Fe31  1  0.516736  0.668303  0.834173  1
  Fe  Fe32  1  0.983264  0.165827  0.331697  1
  Fe  Fe33  1  0.983252  0.165863  0.834137  1
  Fe  Fe34  1  0.983264  0.668303  0.834173  1
  Fe  Fe35  1  0.016736  0.834173  0.668303  1
  Fe  Fe36  1  0.016748  0.834137  0.165863  1
  Fe  Fe37  1  0.016736  0.331697  0.165827  1
