# generated using pymatgen
data_Er2MnC4
_symmetry_space_group_name_H-M   'P 1'
_cell_length_a   5.00885374
_cell_length_b   6.54403614
_cell_length_c   6.54403614
_cell_angle_alpha   70.42810206
_cell_angle_beta   67.49874279
_cell_angle_gamma   67.49874281
_symmetry_Int_Tables_number   1
_chemical_formula_structural   Er2MnC4
_chemical_formula_sum   'Er4 Mn2 C8'
_cell_volume   178.56298583
_cell_formula_units_Z   2
loop_
 _symmetry_equiv_pos_site_id
 _symmetry_equiv_pos_as_xyz
  1  'x, y, z'
loop_
 _atom_site_type_symbol
 _atom_site_label
 _atom_site_symmetry_multiplicity
 _atom_site_fract_x
 _atom_site_fract_y
 _atom_site_fract_z
 _atom_site_occupancy
  C  C0  1  0.420706  0.251092  0.907495  1
  C  C1  1  0.579294  0.748908  0.092505  1
  C  C2  1  0.079294  0.092505  0.748908  1
  C  C3  1  0.920706  0.907495  0.251092  1
  C  C4  1  0.370818  0.472263  0.786102  1
  C  C5  1  0.629182  0.527737  0.213898  1
  C  C6  1  0.870818  0.786102  0.472263  1
  C  C7  1  0.129182  0.213898  0.527737  1
  Mn  Mn8  1  0.250000  0.000000  0.000000  1
  Mn  Mn9  1  0.750000  0.000000  0.000000  1
  Er  Er10  1  0.145151  0.509554  0.200143  1
  Er  Er11  1  0.854849  0.490446  0.799857  1
  Er  Er12  1  0.354849  0.799857  0.490446  1
  Er  Er13  1  0.645151  0.200143  0.509554  1
