# generated using pymatgen
data_ErMn2
_symmetry_space_group_name_H-M   'P 1'
_cell_length_a   5.32065371
_cell_length_b   5.32065371
_cell_length_c   8.07317141
_cell_angle_alpha   90.00000000
_cell_angle_beta   90.00000000
_cell_angle_gamma   120.05914283
_symmetry_Int_Tables_number   1
_chemical_formula_structural   ErMn2
_chemical_formula_sum   'Er4 Mn8'
_cell_volume   197.80882454
_cell_formula_units_Z   4
loop_
 _symmetry_equiv_pos_site_id
 _symmetry_equiv_pos_as_xyz
  1  'x, y, z'
loop_
 _atom_site_type_symbol
 _atom_site_label
 _atom_site_symmetry_multiplicity
 _atom_site_fract_x
 _atom_site_fract_y
 _atom_site_fract_z
 _atom_site_occupancy
  Er  Er0  1  0.666540  0.333460  0.559867  1
  Er  Er1  1  0.333460  0.666540  0.440133  1
  Er  Er2  1  0.333460  0.666540  0.059867  1
  Er  Er3  1  0.666540  0.333460  0.940133  1
  Mn  Mn4  1  0.000000  -0.000000  0.500000  1
  Mn  Mn5  1  0.000000  -0.000000  0.000000  1
  Mn  Mn6  1  0.169192  0.338250  0.750000  1
  Mn  Mn7  1  0.168913  0.831087  0.750000  1
  Mn  Mn8  1  0.661750  0.830808  0.750000  1
  Mn  Mn9  1  0.830808  0.661750  0.250000  1
  Mn  Mn10  1  0.831087  0.168913  0.250000  1
  Mn  Mn11  1  0.338250  0.169192  0.250000  1
