# generated using pymatgen
data_Er4Ni13C4
_symmetry_space_group_name_H-M   'P 1'
_cell_length_a   3.83818521
_cell_length_b   8.35567144
_cell_length_c   8.35567143
_cell_angle_alpha   91.26373116
_cell_angle_beta   90.00000000
_cell_angle_gamma   90.00000000
_symmetry_Int_Tables_number   1
_chemical_formula_structural   Er4Ni13C4
_chemical_formula_sum   'Er4 Ni13 C4'
_cell_volume   267.90633895
_cell_formula_units_Z   1
loop_
 _symmetry_equiv_pos_site_id
 _symmetry_equiv_pos_as_xyz
  1  'x, y, z'
loop_
 _atom_site_type_symbol
 _atom_site_label
 _atom_site_symmetry_multiplicity
 _atom_site_fract_x
 _atom_site_fract_y
 _atom_site_fract_z
 _atom_site_occupancy
  C  C0  1  0.000000  0.000000  0.500000  1
  C  C1  1  0.000000  0.500000  0.000000  1
  C  C2  1  0.000000  0.442970  0.557030  1
  C  C3  1  0.000000  0.557030  0.442970  1
  Ni  Ni4  1  0.500000  0.500000  0.000000  1
  Ni  Ni5  1  0.500000  0.000000  0.500000  1
  Ni  Ni6  1  0.000000  0.000000  0.000000  1
  Ni  Ni7  1  0.000000  0.569823  0.215623  1
  Ni  Ni8  1  0.000000  0.430177  0.784377  1
  Ni  Ni9  1  0.000000  0.215623  0.569823  1
  Ni  Ni10  1  0.000000  0.784377  0.430177  1
  Ni  Ni11  1  0.000000  0.290948  0.074412  1
  Ni  Ni12  1  0.000000  0.709052  0.925588  1
  Ni  Ni13  1  0.000000  0.074412  0.290948  1
  Ni  Ni14  1  0.000000  0.925588  0.709052  1
  Ni  Ni15  1  0.500000  0.123373  0.123373  1
  Ni  Ni16  1  0.500000  0.876627  0.876627  1
  Er  Er17  1  0.500000  0.651626  0.651626  1
  Er  Er18  1  0.500000  0.348374  0.348374  1
  Er  Er19  1  0.500000  0.812763  0.187237  1
  Er  Er20  1  0.500000  0.187237  0.812763  1
