# generated using pymatgen
data_ErNi7B3
_symmetry_space_group_name_H-M   'P 1'
_cell_length_a   7.63421733
_cell_length_b   7.63421733
_cell_length_c   9.46823329
_cell_angle_alpha   113.77518511
_cell_angle_beta   113.77518506
_cell_angle_gamma   90.00000001
_symmetry_Int_Tables_number   1
_chemical_formula_structural   ErNi7B3
_chemical_formula_sum   'Er4 Ni28 B12'
_cell_volume   453.34741864
_cell_formula_units_Z   4
loop_
 _symmetry_equiv_pos_site_id
 _symmetry_equiv_pos_as_xyz
  1  'x, y, z'
loop_
 _atom_site_type_symbol
 _atom_site_label
 _atom_site_symmetry_multiplicity
 _atom_site_fract_x
 _atom_site_fract_y
 _atom_site_fract_z
 _atom_site_occupancy
  B  B0  1  0.790132  0.500000  0.000000  1
  B  B1  1  0.000000  0.790132  0.500000  1
  B  B2  1  0.500000  0.209868  0.500000  1
  B  B3  1  0.209868  0.000000  0.000000  1
  B  B4  1  0.500000  0.790132  0.500000  1
  B  B5  1  0.790132  0.000000  0.000000  1
  B  B6  1  0.433519  0.683519  0.867037  1
  B  B7  1  0.683519  0.433519  0.367037  1
  B  B8  1  0.566481  0.316481  0.132963  1
  B  B9  1  0.316481  0.566481  0.632963  1
  B  B10  1  0.209868  0.500000  0.000000  1
  B  B11  1  0.000000  0.209868  0.500000  1
  Ni  Ni12  1  0.187347  0.437347  0.750000  1
  Ni  Ni13  1  0.562653  0.437347  0.750000  1
  Ni  Ni14  1  0.187347  0.812653  0.750000  1
  Ni  Ni15  1  0.812653  0.562653  0.250000  1
  Ni  Ni16  1  0.768197  0.306470  0.536395  1
  Ni  Ni17  1  0.729925  0.768197  0.036395  1
  Ni  Ni18  1  0.306470  0.768197  0.036395  1
  Ni  Ni19  1  0.437347  0.187347  0.250000  1
  Ni  Ni20  1  0.231803  0.270075  0.463605  1
  Ni  Ni21  1  0.270075  0.231803  0.963605  1
  Ni  Ni22  1  0.693530  0.231803  0.963605  1
  Ni  Ni23  1  0.768197  0.729925  0.536395  1
  Ni  Ni24  1  0.931381  0.343636  0.862761  1
  Ni  Ni25  1  0.019126  0.931381  0.362761  1
  Ni  Ni26  1  0.343636  0.931381  0.362761  1
  Ni  Ni27  1  0.068619  0.656364  0.137239  1
  Ni  Ni28  1  0.068619  0.980874  0.137239  1
  Ni  Ni29  1  0.980874  0.068619  0.637239  1
  Ni  Ni30  1  0.656364  0.068619  0.637239  1
  Ni  Ni31  1  0.931381  0.019126  0.862761  1
  Ni  Ni32  1  0.437347  0.562653  0.250000  1
  Ni  Ni33  1  0.562653  0.812653  0.750000  1
  Ni  Ni34  1  0.500000  0.500000  0.000000  1
  Ni  Ni35  1  0.000000  0.500000  0.500000  1
  Ni  Ni36  1  0.500000  0.500000  0.500000  1
  Ni  Ni37  1  0.500000  0.000000  0.000000  1
  Ni  Ni38  1  0.231803  0.693530  0.463605  1
  Ni  Ni39  1  0.812653  0.187347  0.250000  1
  Er  Er40  1  0.090850  0.340850  0.181701  1
  Er  Er41  1  0.340850  0.090850  0.681701  1
  Er  Er42  1  0.909150  0.659150  0.818299  1
  Er  Er43  1  0.659150  0.909150  0.318299  1
