# generated using pymatgen
data_ErNiB4
_symmetry_space_group_name_H-M   'P 1'
_cell_length_a   6.79174478
_cell_length_b   6.79174478
_cell_length_c   6.79174477
_cell_angle_alpha   102.64839129
_cell_angle_beta   112.98662854
_cell_angle_gamma   112.98662859
_symmetry_Int_Tables_number   1
_chemical_formula_structural   ErNiB4
_chemical_formula_sum   'Er4 Ni4 B16'
_cell_volume   238.64687224
_cell_formula_units_Z   4
loop_
 _symmetry_equiv_pos_site_id
 _symmetry_equiv_pos_as_xyz
  1  'x, y, z'
loop_
 _atom_site_type_symbol
 _atom_site_label
 _atom_site_symmetry_multiplicity
 _atom_site_fract_x
 _atom_site_fract_y
 _atom_site_fract_z
 _atom_site_occupancy
  B  B0  1  0.533615  0.113708  0.113708  1
  B  B1  1  0.466385  0.580093  0.580093  1
  B  B2  1  0.466385  0.886292  0.886292  1
  B  B3  1  0.000000  0.580093  0.113708  1
  B  B4  1  0.000000  0.113708  0.580093  1
  B  B5  1  0.000000  0.886292  0.419907  1
  B  B6  1  0.000000  0.419907  0.886292  1
  B  B7  1  0.533615  0.419907  0.419907  1
  B  B8  1  0.387123  0.111490  0.275633  1
  B  B9  1  0.164143  0.275633  0.888510  1
  B  B10  1  0.835857  0.724367  0.111490  1
  B  B11  1  0.835857  0.111490  0.724367  1
  B  B12  1  0.164143  0.888510  0.275633  1
  B  B13  1  0.612877  0.888510  0.724367  1
  B  B14  1  0.612877  0.724367  0.888510  1
  B  B15  1  0.387123  0.275633  0.111490  1
  Ni  Ni16  1  0.228441  0.500000  0.728441  1
  Ni  Ni17  1  0.228441  0.728441  0.500000  1
  Ni  Ni18  1  0.771559  0.271559  0.500000  1
  Ni  Ni19  1  0.771559  0.500000  0.271559  1
  Er  Er20  1  0.500000  0.250000  0.750000  1
  Er  Er21  1  0.500000  0.750000  0.250000  1
  Er  Er22  1  0.000000  0.796622  0.796622  1
  Er  Er23  1  0.000000  0.203378  0.203378  1
