# generated using pymatgen
data_ErRu2
_symmetry_space_group_name_H-M   'P 1'
_cell_length_a   5.25936734
_cell_length_b   5.25936734
_cell_length_c   8.90084075
_cell_angle_alpha   90.00000000
_cell_angle_beta   90.00000000
_cell_angle_gamma   120.01846515
_symmetry_Int_Tables_number   1
_chemical_formula_structural   ErRu2
_chemical_formula_sum   'Er4 Ru8'
_cell_volume   213.18067599
_cell_formula_units_Z   4
loop_
 _symmetry_equiv_pos_site_id
 _symmetry_equiv_pos_as_xyz
  1  'x, y, z'
loop_
 _atom_site_type_symbol
 _atom_site_label
 _atom_site_symmetry_multiplicity
 _atom_site_fract_x
 _atom_site_fract_y
 _atom_site_fract_z
 _atom_site_occupancy
  Er  Er0  1  0.666694  0.333306  0.566095  1
  Er  Er1  1  0.333306  0.666694  0.433905  1
  Er  Er2  1  0.333306  0.666694  0.066095  1
  Er  Er3  1  0.666694  0.333306  0.933905  1
  Ru  Ru4  1  0.000000  0.000000  0.500000  1
  Ru  Ru5  1  0.000000  0.000000  0.000000  1
  Ru  Ru6  1  0.171382  0.342708  0.750000  1
  Ru  Ru7  1  0.171341  0.828659  0.750000  1
  Ru  Ru8  1  0.657292  0.828618  0.750000  1
  Ru  Ru9  1  0.828618  0.657292  0.250000  1
  Ru  Ru10  1  0.828659  0.171341  0.250000  1
  Ru  Ru11  1  0.342708  0.171382  0.250000  1
