# generated using pymatgen
data_Er2TiO5
_symmetry_space_group_name_H-M   'P 1'
_cell_length_a   5.26651759
_cell_length_b   6.38461586
_cell_length_c   7.52374568
_cell_angle_alpha   68.49834245
_cell_angle_beta   90.02850633
_cell_angle_gamma   65.65129492
_symmetry_Int_Tables_number   1
_chemical_formula_structural   Er2TiO5
_chemical_formula_sum   'Er4 Ti2 O10'
_cell_volume   210.98354122
_cell_formula_units_Z   2
loop_
 _symmetry_equiv_pos_site_id
 _symmetry_equiv_pos_as_xyz
  1  'x, y, z'
loop_
 _atom_site_type_symbol
 _atom_site_label
 _atom_site_symmetry_multiplicity
 _atom_site_fract_x
 _atom_site_fract_y
 _atom_site_fract_z
 _atom_site_occupancy
  Er  Er0  1  0.628362  0.724242  0.751243  1
  Er  Er1  1  0.352937  0.277743  0.748088  1
  Er  Er2  1  0.646029  0.724769  0.251401  1
  Er  Er3  1  0.367691  0.278650  0.247630  1
  Ti  Ti4  1  0.993937  0.000261  0.490988  1
  Ti  Ti5  1  0.004931  0.999859  0.991367  1
  O  O6  1  0.024382  0.660695  0.639567  1
  O  O7  1  0.751998  0.857047  0.955806  1
  O  O8  1  0.389545  0.857689  0.455815  1
  O  O9  1  0.684851  0.339788  0.859418  1
  O  O10  1  0.313958  0.660920  0.140216  1
  O  O11  1  0.168943  0.000499  0.752949  1
  O  O12  1  0.608120  0.144594  0.543323  1
  O  O13  1  0.246199  0.144768  0.043638  1
  O  O14  1  0.972947  0.339949  0.358170  1
  O  O15  1  0.828552  0.001844  0.252675  1
