# generated using pymatgen
data_Er2(WO4)3
_symmetry_space_group_name_H-M   'P 1'
_cell_length_a   6.90449994
_cell_length_b   6.90449959
_cell_length_c   11.38700814
_cell_angle_alpha   79.01201731
_cell_angle_beta   100.98798001
_cell_angle_gamma   67.85232215
_symmetry_Int_Tables_number   1
_chemical_formula_structural   Er2(WO4)3
_chemical_formula_sum   'Er4 W6 O24'
_cell_volume   472.56124356
_cell_formula_units_Z   2
loop_
 _symmetry_equiv_pos_site_id
 _symmetry_equiv_pos_as_xyz
  1  'x, y, z'
loop_
 _atom_site_type_symbol
 _atom_site_label
 _atom_site_symmetry_multiplicity
 _atom_site_fract_x
 _atom_site_fract_y
 _atom_site_fract_z
 _atom_site_occupancy
  Er  Er0  1  0.049682  0.695029  0.092544  1
  Er  Er1  1  0.304971  0.950318  0.592544  1
  Er  Er2  1  0.695029  0.049682  0.407456  1
  Er  Er3  1  0.950318  0.304971  0.907456  1
  W  W4  1  0.118319  0.118319  0.250000  1
  W  W5  1  0.204468  0.510168  0.450358  1
  W  W6  1  0.489832  0.795532  0.950358  1
  W  W7  1  0.510168  0.204468  0.049642  1
  W  W8  1  0.795532  0.489832  0.549642  1
  W  W9  1  0.881681  0.881681  0.750000  1
  O  O10  1  0.053548  0.026588  0.394847  1
  O  O11  1  0.026588  0.053548  0.105153  1
  O  O12  1  0.103744  0.319934  0.576008  1
  O  O13  1  0.319934  0.103744  0.923992  1
  O  O14  1  0.009993  0.410246  0.219572  1
  O  O15  1  0.410246  0.009993  0.280428  1
  O  O16  1  0.381350  0.218365  0.461843  1
  O  O17  1  0.218365  0.381350  0.038157  1
  O  O18  1  0.202671  0.654373  0.297227  1
  O  O19  1  0.329971  0.608681  0.562083  1
  O  O20  1  0.345627  0.797329  0.797227  1
  O  O21  1  0.608681  0.329971  0.937917  1
  O  O22  1  0.391319  0.670029  0.062083  1
  O  O23  1  0.654373  0.202671  0.202773  1
  O  O24  1  0.670029  0.391319  0.437917  1
  O  O25  1  0.797329  0.345627  0.702773  1
  O  O26  1  0.781635  0.618650  0.961843  1
  O  O27  1  0.618650  0.781635  0.538157  1
  O  O28  1  0.589754  0.990007  0.719572  1
  O  O29  1  0.990007  0.589754  0.780428  1
  O  O30  1  0.680066  0.896256  0.076008  1
  O  O31  1  0.896256  0.680066  0.423992  1
  O  O32  1  0.973412  0.946452  0.894847  1
  O  O33  1  0.946452  0.973412  0.605153  1
