# generated using pymatgen
data_Er6Fe23
_symmetry_space_group_name_H-M   'P 1'
_cell_length_a   8.45317792
_cell_length_b   8.45317791
_cell_length_c   8.45317791
_cell_angle_alpha   59.99999996
_cell_angle_beta   60.00000000
_cell_angle_gamma   59.99999999
_symmetry_Int_Tables_number   1
_chemical_formula_structural   Er6Fe23
_chemical_formula_sum   'Er6 Fe23'
_cell_volume   427.11520363
_cell_formula_units_Z   1
loop_
 _symmetry_equiv_pos_site_id
 _symmetry_equiv_pos_as_xyz
  1  'x, y, z'
loop_
 _atom_site_type_symbol
 _atom_site_label
 _atom_site_symmetry_multiplicity
 _atom_site_fract_x
 _atom_site_fract_y
 _atom_site_fract_z
 _atom_site_occupancy
  Fe  Fe0  1  0.824770  0.824770  0.824770  1
  Fe  Fe1  1  0.175230  0.175230  0.474310  1
  Fe  Fe2  1  0.175230  0.474310  0.175230  1
  Fe  Fe3  1  0.474310  0.175230  0.175230  1
  Fe  Fe4  1  0.824770  0.525690  0.824770  1
  Fe  Fe5  1  0.525690  0.824770  0.824770  1
  Fe  Fe6  1  0.500000  0.500000  0.500000  1
  Fe  Fe7  1  0.500000  0.000000  0.000000  1
  Fe  Fe8  1  0.000000  0.000000  0.500000  1
  Fe  Fe9  1  0.500000  0.500000  0.000000  1
  Fe  Fe10  1  0.000000  0.500000  0.500000  1
  Fe  Fe11  1  0.000000  0.500000  0.000000  1
  Fe  Fe12  1  0.500000  0.000000  0.500000  1
  Fe  Fe13  1  0.378507  0.378507  0.378507  1
  Fe  Fe14  1  0.621493  0.621493  0.135522  1
  Fe  Fe15  1  0.135522  0.621493  0.621493  1
  Fe  Fe16  1  0.621493  0.135522  0.621493  1
  Fe  Fe17  1  0.864478  0.378507  0.378507  1
  Fe  Fe18  1  0.378507  0.864478  0.378507  1
  Fe  Fe19  1  0.378507  0.378507  0.864478  1
  Fe  Fe20  1  0.621493  0.621493  0.621493  1
  Fe  Fe21  1  0.175230  0.175230  0.175230  1
  Fe  Fe22  1  0.824770  0.824770  0.525690  1
  Er  Er23  1  0.209538  0.790462  0.790462  1
  Er  Er24  1  0.209538  0.790462  0.209538  1
  Er  Er25  1  0.790462  0.209538  0.790462  1
  Er  Er26  1  0.209538  0.209538  0.790462  1
  Er  Er27  1  0.790462  0.790462  0.209538  1
  Er  Er28  1  0.790462  0.209538  0.209538  1
