# generated using pymatgen
data_ErMnO3
_symmetry_space_group_name_H-M   'P 1'
_cell_length_a   6.17366027
_cell_length_b   6.17366027
_cell_length_c   11.51732923
_cell_angle_alpha   90.00000000
_cell_angle_beta   90.00000000
_cell_angle_gamma   119.99999995
_symmetry_Int_Tables_number   1
_chemical_formula_structural   ErMnO3
_chemical_formula_sum   'Er6 Mn6 O18'
_cell_volume   380.16126799
_cell_formula_units_Z   6
loop_
 _symmetry_equiv_pos_site_id
 _symmetry_equiv_pos_as_xyz
  1  'x, y, z'
loop_
 _atom_site_type_symbol
 _atom_site_label
 _atom_site_symmetry_multiplicity
 _atom_site_fract_x
 _atom_site_fract_y
 _atom_site_fract_z
 _atom_site_occupancy
  O  O0  1  0.666667  0.333333  0.019345  1
  O  O1  1  0.333333  0.666667  0.519345  1
  O  O2  1  0.666667  0.333333  0.519345  1
  O  O3  1  0.333333  0.666667  0.019345  1
  O  O4  1  0.000000  0.000000  0.972397  1
  O  O5  1  0.000000  0.000000  0.472397  1
  O  O6  1  0.359573  0.000000  0.832617  1
  O  O7  1  0.359573  0.359573  0.332617  1
  O  O8  1  0.000000  0.640427  0.332617  1
  O  O9  1  0.000000  0.359573  0.832617  1
  O  O10  1  0.640427  0.640427  0.832617  1
  O  O11  1  0.640427  0.000000  0.332617  1
  O  O12  1  0.306726  0.000000  0.163188  1
  O  O13  1  0.306726  0.306726  0.663188  1
  O  O14  1  0.000000  0.693274  0.663188  1
  O  O15  1  0.000000  0.306726  0.163188  1
  O  O16  1  0.693274  0.693274  0.163188  1
  O  O17  1  0.693274  0.000000  0.663188  1
  Mn  Mn18  1  0.666587  0.000000  0.497781  1
  Mn  Mn19  1  0.666587  0.666587  0.997781  1
  Mn  Mn20  1  0.000000  0.333413  0.997781  1
  Mn  Mn21  1  0.000000  0.666587  0.497781  1
  Mn  Mn22  1  0.333413  0.333413  0.497781  1
  Mn  Mn23  1  0.333413  0.000000  0.997781  1
  Er  Er24  1  0.666667  0.333333  0.228771  1
  Er  Er25  1  0.333333  0.666667  0.728771  1
  Er  Er26  1  0.666667  0.333333  0.728771  1
  Er  Er27  1  0.333333  0.666667  0.228771  1
  Er  Er28  1  0.000000  0.000000  0.772614  1
  Er  Er29  1  0.000000  0.000000  0.272614  1
