# generated using pymatgen
data_Er3Pd2
_symmetry_space_group_name_H-M   'P 1'
_cell_length_a   3.94033956
_cell_length_b   7.72633048
_cell_length_c   7.72633048
_cell_angle_alpha   90.00000000
_cell_angle_beta   90.00000000
_cell_angle_gamma   90.00000000
_symmetry_Int_Tables_number   1
_chemical_formula_structural   Er3Pd2
_chemical_formula_sum   'Er6 Pd4'
_cell_volume   235.22323022
_cell_formula_units_Z   2
loop_
 _symmetry_equiv_pos_site_id
 _symmetry_equiv_pos_as_xyz
  1  'x, y, z'
loop_
 _atom_site_type_symbol
 _atom_site_label
 _atom_site_symmetry_multiplicity
 _atom_site_fract_x
 _atom_site_fract_y
 _atom_site_fract_z
 _atom_site_occupancy
  Pd  Pd0  1  0.000000  0.634541  0.134541  1
  Pd  Pd1  1  0.000000  0.865459  0.634541  1
  Pd  Pd2  1  0.000000  0.134541  0.365459  1
  Pd  Pd3  1  0.000000  0.365459  0.865459  1
  Er  Er4  1  0.500000  0.663728  0.836272  1
  Er  Er5  1  0.500000  0.836272  0.336272  1
  Er  Er6  1  0.500000  0.336272  0.163728  1
  Er  Er7  1  0.500000  0.163728  0.663728  1
  Er  Er8  1  0.000000  0.500000  0.500000  1
  Er  Er9  1  0.000000  0.000000  0.000000  1
