# generated using pymatgen
data_Er3Ru2
_symmetry_space_group_name_H-M   'P 1'
_cell_length_a   7.53108168
_cell_length_b   7.53108169
_cell_length_c   4.71861047
_cell_angle_alpha   90.00000000
_cell_angle_beta   90.00000000
_cell_angle_gamma   119.99999998
_symmetry_Int_Tables_number   1
_chemical_formula_structural   Er3Ru2
_chemical_formula_sum   'Er6 Ru4'
_cell_volume   231.77120297
_cell_formula_units_Z   2
loop_
 _symmetry_equiv_pos_site_id
 _symmetry_equiv_pos_as_xyz
  1  'x, y, z'
loop_
 _atom_site_type_symbol
 _atom_site_label
 _atom_site_symmetry_multiplicity
 _atom_site_fract_x
 _atom_site_fract_y
 _atom_site_fract_z
 _atom_site_occupancy
  Ru  Ru0  1  0.666667  0.333333  0.750000  1
  Ru  Ru1  1  0.333333  0.666667  0.250000  1
  Ru  Ru2  1  0.000000  0.000000  0.500000  1
  Ru  Ru3  1  0.000000  0.000000  0.000000  1
  Er  Er4  1  0.695000  0.616221  0.250000  1
  Er  Er5  1  0.616221  0.921220  0.750000  1
  Er  Er6  1  0.921220  0.305000  0.250000  1
  Er  Er7  1  0.078780  0.695000  0.750000  1
  Er  Er8  1  0.305000  0.383779  0.750000  1
  Er  Er9  1  0.383779  0.078780  0.250000  1
