# generated using pymatgen
data_Er2Cu2O5
_symmetry_space_group_name_H-M   'P 1'
_cell_length_a   3.48875179
_cell_length_b   10.84675181
_cell_length_c   12.48531718
_cell_angle_alpha   90.00000000
_cell_angle_beta   90.00000000
_cell_angle_gamma   90.00000000
_symmetry_Int_Tables_number   1
_chemical_formula_structural   Er2Cu2O5
_chemical_formula_sum   'Er8 Cu8 O20'
_cell_volume   472.46468814
_cell_formula_units_Z   4
loop_
 _symmetry_equiv_pos_site_id
 _symmetry_equiv_pos_as_xyz
  1  'x, y, z'
loop_
 _atom_site_type_symbol
 _atom_site_label
 _atom_site_symmetry_multiplicity
 _atom_site_fract_x
 _atom_site_fract_y
 _atom_site_fract_z
 _atom_site_occupancy
  O  O0  1  0.274488  0.921800  0.030500  1
  O  O1  1  0.725512  0.078200  0.530500  1
  O  O2  1  0.225512  0.421800  0.030500  1
  O  O3  1  0.774488  0.578200  0.530500  1
  O  O4  1  0.723381  0.930235  0.239467  1
  O  O5  1  0.276619  0.069765  0.739467  1
  O  O6  1  0.776619  0.430235  0.239467  1
  O  O7  1  0.223381  0.569765  0.739467  1
  O  O8  1  0.162186  0.626141  0.336871  1
  O  O9  1  0.837814  0.373859  0.836871  1
  O  O10  1  0.337814  0.126141  0.336871  1
  O  O11  1  0.662186  0.873859  0.836871  1
  O  O12  1  0.783124  0.823360  0.436608  1
  O  O13  1  0.216876  0.176640  0.936608  1
  O  O14  1  0.716876  0.323360  0.436608  1
  O  O15  1  0.283124  0.676640  0.936608  1
  O  O16  1  0.276492  0.826244  0.644956  1
  O  O17  1  0.723508  0.173756  0.144956  1
  O  O18  1  0.223508  0.326244  0.644956  1
  O  O19  1  0.776492  0.673756  0.144956  1
  Cu  Cu20  1  0.845841  0.763363  0.284332  1
  Cu  Cu21  1  0.154159  0.236637  0.784332  1
  Cu  Cu22  1  0.654159  0.263363  0.284332  1
  Cu  Cu23  1  0.345841  0.736637  0.784332  1
  Cu  Cu24  1  0.840602  0.490294  0.390547  1
  Cu  Cu25  1  0.159398  0.509706  0.890547  1
  Cu  Cu26  1  0.659398  0.990294  0.390547  1
  Cu  Cu27  1  0.340602  0.009706  0.890547  1
  Er  Er28  1  0.277889  0.543161  0.172923  1
  Er  Er29  1  0.722111  0.456839  0.672923  1
  Er  Er30  1  0.222111  0.043161  0.172923  1
  Er  Er31  1  0.777889  0.956839  0.672923  1
  Er  Er32  1  0.280483  0.708555  0.500594  1
  Er  Er33  1  0.719517  0.291445  0.000594  1
  Er  Er34  1  0.219517  0.208555  0.500594  1
  Er  Er35  1  0.780483  0.791445  0.000594  1
