# generated using pymatgen
data_Cd(FeO2)2
_symmetry_space_group_name_H-M   'P 1'
_cell_length_a   10.86744244
_cell_length_b   9.37785105
_cell_length_c   3.03404699
_cell_angle_alpha   90.00000000
_cell_angle_beta   90.00000000
_cell_angle_gamma   90.00000000
_symmetry_Int_Tables_number   1
_chemical_formula_structural   Cd(FeO2)2
_chemical_formula_sum   'Cd4 Fe8 O16'
_cell_volume   309.20960912
_cell_formula_units_Z   4
loop_
 _symmetry_equiv_pos_site_id
 _symmetry_equiv_pos_as_xyz
  1  'x, y, z'
loop_
 _atom_site_type_symbol
 _atom_site_label
 _atom_site_symmetry_multiplicity
 _atom_site_fract_x
 _atom_site_fract_y
 _atom_site_fract_z
 _atom_site_occupancy
  Cd  Cd0  1  0.156428  0.742756  0.250000  1
  Cd  Cd1  1  0.343572  0.242756  0.250000  1
  Cd  Cd2  1  0.656428  0.757244  0.750000  1
  Cd  Cd3  1  0.843572  0.257244  0.750000  1
  Fe  Fe4  1  0.103639  0.415771  0.750000  1
  Fe  Fe5  1  0.113618  0.062683  0.250000  1
  Fe  Fe6  1  0.386382  0.562683  0.250000  1
  Fe  Fe7  1  0.396361  0.915771  0.750000  1
  Fe  Fe8  1  0.603639  0.084229  0.250000  1
  Fe  Fe9  1  0.613618  0.437317  0.750000  1
  Fe  Fe10  1  0.886382  0.937317  0.750000  1
  Fe  Fe11  1  0.896361  0.584229  0.250000  1
  O  O12  1  0.025682  0.616734  0.750000  1
  O  O13  1  0.071035  0.917899  0.750000  1
  O  O14  1  0.161385  0.202731  0.750000  1
  O  O15  1  0.215731  0.468704  0.250000  1
  O  O16  1  0.284268  0.968704  0.250000  1
  O  O17  1  0.338615  0.702731  0.750000  1
  O  O18  1  0.428965  0.417899  0.750000  1
  O  O19  1  0.474318  0.116734  0.750000  1
  O  O20  1  0.525682  0.883266  0.250000  1
  O  O21  1  0.571035  0.582101  0.250000  1
  O  O22  1  0.661385  0.297269  0.250000  1
  O  O23  1  0.715731  0.031296  0.750000  1
  O  O24  1  0.784269  0.531296  0.750000  1
  O  O25  1  0.838615  0.797269  0.250000  1
  O  O26  1  0.928965  0.082101  0.250000  1
  O  O27  1  0.974318  0.383266  0.250000  1
