# generated using pymatgen
data_Er2MoO6
_symmetry_space_group_name_H-M   'P 1'
_cell_length_a   5.35699357
_cell_length_b   9.88629853
_cell_length_c   9.88628149
_cell_angle_alpha   67.92527008
_cell_angle_beta   74.92657166
_cell_angle_gamma   74.92654176
_symmetry_Int_Tables_number   1
_chemical_formula_structural   Er2MoO6
_chemical_formula_sum   'Er8 Mo4 O24'
_cell_volume   460.73639526
_cell_formula_units_Z   4
loop_
 _symmetry_equiv_pos_site_id
 _symmetry_equiv_pos_as_xyz
  1  'x, y, z'
loop_
 _atom_site_type_symbol
 _atom_site_label
 _atom_site_symmetry_multiplicity
 _atom_site_fract_x
 _atom_site_fract_y
 _atom_site_fract_z
 _atom_site_occupancy
  O  O0  1  0.921933  0.572418  0.609740  1
  O  O1  1  0.578066  0.390259  0.427583  1
  O  O2  1  0.078065  0.427583  0.390260  1
  O  O3  1  0.421932  0.609741  0.572416  1
  O  O4  1  0.918256  0.806024  0.337466  1
  O  O5  1  0.581744  0.662535  0.193976  1
  O  O6  1  0.081744  0.193975  0.662535  1
  O  O7  1  0.418255  0.337464  0.806025  1
  O  O8  1  0.374557  0.884205  0.326146  1
  O  O9  1  0.125439  0.673853  0.115801  1
  O  O10  1  0.625432  0.115800  0.673854  1
  O  O11  1  0.874566  0.326147  0.884198  1
  O  O12  1  0.636608  0.289339  0.185606  1
  O  O13  1  0.863390  0.814396  0.710662  1
  O  O14  1  0.363390  0.710661  0.814395  1
  O  O15  1  0.136611  0.185605  0.289338  1
  O  O16  1  0.513672  0.109020  0.048896  1
  O  O17  1  0.986327  0.951102  0.890982  1
  O  O18  1  0.752750  0.024434  0.432684  1
  O  O19  1  0.013674  0.048898  0.109009  1
  O  O20  1  0.252749  0.432681  0.024434  1
  O  O21  1  0.247248  0.975565  0.567317  1
  O  O22  1  0.747255  0.567318  0.975566  1
  O  O23  1  0.486328  0.890981  0.951104  1
  Mo  Mo24  1  0.060947  0.012733  0.295679  1
  Mo  Mo25  1  0.439067  0.704331  0.987265  1
  Mo  Mo26  1  0.939066  0.987262  0.704332  1
  Mo  Mo27  1  0.560925  0.295666  0.012737  1
  Er  Er28  1  0.622691  0.782843  0.551543  1
  Er  Er29  1  0.122692  0.551544  0.782841  1
  Er  Er30  1  0.377307  0.217158  0.448456  1
  Er  Er31  1  0.877308  0.448455  0.217159  1
  Er  Er32  1  0.249998  0.137081  0.862918  1
  Er  Er33  1  0.750003  0.862917  0.137082  1
  Er  Er34  1  0.249999  0.605826  0.394175  1
  Er  Er35  1  0.749997  0.394179  0.605821  1
