# generated using pymatgen
data_Er4NiB13
_symmetry_space_group_name_H-M   'P 1'
_cell_length_a   7.28221776
_cell_length_b   7.28221776
_cell_length_c   6.84472933
_cell_angle_alpha   90.00000000
_cell_angle_beta   90.00000000
_cell_angle_gamma   90.00000000
_symmetry_Int_Tables_number   1
_chemical_formula_structural   Er4NiB13
_chemical_formula_sum   'Er8 Ni2 B26'
_cell_volume   362.98075691
_cell_formula_units_Z   2
loop_
 _symmetry_equiv_pos_site_id
 _symmetry_equiv_pos_as_xyz
  1  'x, y, z'
loop_
 _atom_site_type_symbol
 _atom_site_label
 _atom_site_symmetry_multiplicity
 _atom_site_fract_x
 _atom_site_fract_y
 _atom_site_fract_z
 _atom_site_occupancy
  Er  Er0  1  0.680005  0.815214  0.000000  1
  Er  Er1  1  0.184786  0.680005  0.000000  1
  Er  Er2  1  0.180005  0.684786  0.500000  1
  Er  Er3  1  0.815214  0.319995  0.000000  1
  Er  Er4  1  0.315214  0.180005  0.500000  1
  Er  Er5  1  0.684786  0.819995  0.500000  1
  Er  Er6  1  0.319995  0.184786  0.000000  1
  Er  Er7  1  0.819995  0.315214  0.500000  1
  Ni  Ni8  1  -0.000000  0.000000  0.000000  1
  Ni  Ni9  1  0.500000  0.500000  0.500000  1
  B  B10  1  0.460218  0.670708  0.243167  1
  B  B11  1  0.091967  0.408033  0.250000  1
  B  B12  1  0.960218  0.829292  0.743167  1
  B  B13  1  0.329292  0.460218  0.756833  1
  B  B14  1  0.500000  0.500000  0.000000  1
  B  B15  1  0.408033  0.908033  0.250000  1
  B  B16  1  0.960218  0.829292  0.256833  1
  B  B17  1  0.170708  0.960218  0.256833  1
  B  B18  1  0.829292  0.039782  0.256833  1
  B  B19  1  0.829292  0.039782  0.743167  1
  B  B20  1  0.539782  0.329292  0.243167  1
  B  B21  1  0.591967  0.091967  0.750000  1
  B  B22  1  0.170708  0.960218  0.743167  1
  B  B23  1  0.591967  0.091967  0.250000  1
  B  B24  1  0.000000  -0.000000  0.500000  1
  B  B25  1  0.670708  0.539782  0.243167  1
  B  B26  1  0.091967  0.408033  0.750000  1
  B  B27  1  0.908033  0.591967  0.250000  1
  B  B28  1  0.408033  0.908033  0.750000  1
  B  B29  1  0.539782  0.329292  0.756833  1
  B  B30  1  0.460218  0.670708  0.756833  1
  B  B31  1  0.329292  0.460218  0.243167  1
  B  B32  1  0.908033  0.591967  0.750000  1
  B  B33  1  0.039782  0.170708  0.256833  1
  B  B34  1  0.039782  0.170708  0.743167  1
  B  B35  1  0.670708  0.539782  0.756833  1
