# generated using pymatgen
data_Er2TiO5
_symmetry_space_group_name_H-M   'P 1'
_cell_length_a   10.44028207
_cell_length_b   11.18869500
_cell_length_c   3.69492314
_cell_angle_alpha   90.00000000
_cell_angle_beta   90.00000000
_cell_angle_gamma   90.00000000
_symmetry_Int_Tables_number   1
_chemical_formula_structural   Er2TiO5
_chemical_formula_sum   'Er8 Ti4 O20'
_cell_volume   431.61554373
_cell_formula_units_Z   4
loop_
 _symmetry_equiv_pos_site_id
 _symmetry_equiv_pos_as_xyz
  1  'x, y, z'
loop_
 _atom_site_type_symbol
 _atom_site_label
 _atom_site_symmetry_multiplicity
 _atom_site_fract_x
 _atom_site_fract_y
 _atom_site_fract_z
 _atom_site_occupancy
  Er  Er0  1  0.110814  0.722693  0.250000  1
  Er  Er1  1  0.135226  0.056691  0.250000  1
  Er  Er2  1  0.364774  0.556691  0.750000  1
  Er  Er3  1  0.389186  0.222693  0.750000  1
  Er  Er4  1  0.610814  0.777307  0.250000  1
  Er  Er5  1  0.635226  0.443309  0.250000  1
  Er  Er6  1  0.864774  0.943309  0.750000  1
  Er  Er7  1  0.889186  0.277307  0.750000  1
  Ti  Ti8  1  0.180320  0.377929  0.250000  1
  Ti  Ti9  1  0.319680  0.877929  0.750000  1
  Ti  Ti10  1  0.680320  0.122071  0.250000  1
  Ti  Ti11  1  0.819680  0.622071  0.750000  1
  O  O12  1  0.008150  0.104295  0.750000  1
  O  O13  1  0.013759  0.339425  0.250000  1
  O  O14  1  0.226099  0.542715  0.250000  1
  O  O15  1  0.235147  0.726034  0.750000  1
  O  O16  1  0.244475  0.381541  0.750000  1
  O  O17  1  0.255525  0.881541  0.250000  1
  O  O18  1  0.264853  0.226034  0.250000  1
  O  O19  1  0.273901  0.042715  0.750000  1
  O  O20  1  0.486241  0.839425  0.750000  1
  O  O21  1  0.491850  0.604295  0.250000  1
  O  O22  1  0.508150  0.395705  0.750000  1
  O  O23  1  0.513759  0.160575  0.250000  1
  O  O24  1  0.726099  0.957285  0.250000  1
  O  O25  1  0.735147  0.773966  0.750000  1
  O  O26  1  0.744475  0.118459  0.750000  1
  O  O27  1  0.755525  0.618459  0.250000  1
  O  O28  1  0.764853  0.273966  0.250000  1
  O  O29  1  0.773901  0.457285  0.750000  1
  O  O30  1  0.986241  0.660575  0.750000  1
  O  O31  1  0.991850  0.895705  0.250000  1
