# generated using pymatgen
data_Er2(WO4)3
_symmetry_space_group_name_H-M   'P 1'
_cell_length_a   10.09129144
_cell_length_b   10.20388066
_cell_length_c   14.06208412
_cell_angle_alpha   90.00000000
_cell_angle_beta   90.29066929
_cell_angle_gamma   90.00000000
_symmetry_Int_Tables_number   1
_chemical_formula_structural   Er2(WO4)3
_chemical_formula_sum   'Er8 W12 O48'
_cell_volume   1447.95885928
_cell_formula_units_Z   4
loop_
 _symmetry_equiv_pos_site_id
 _symmetry_equiv_pos_as_xyz
  1  'x, y, z'
loop_
 _atom_site_type_symbol
 _atom_site_label
 _atom_site_symmetry_multiplicity
 _atom_site_fract_x
 _atom_site_fract_y
 _atom_site_fract_z
 _atom_site_occupancy
  Er  Er0  1  0.247533  0.970640  0.881781  1
  Er  Er1  1  0.244246  0.033570  0.381929  1
  Er  Er2  1  0.255754  0.533570  0.118071  1
  Er  Er3  1  0.252467  0.470640  0.618219  1
  Er  Er4  1  0.747533  0.529360  0.381781  1
  Er  Er5  1  0.744246  0.466430  0.881929  1
  Er  Er6  1  0.755754  0.966430  0.618071  1
  Er  Er7  1  0.752467  0.029360  0.118219  1
  W  W8  1  0.025950  0.748663  0.500166  1
  W  W9  1  0.103607  0.619420  0.856422  1
  W  W10  1  0.107299  0.879904  0.142913  1
  W  W11  1  0.392701  0.379904  0.357087  1
  W  W12  1  0.396393  0.119420  0.643578  1
  W  W13  1  0.474050  0.248663  0.999834  1
  W  W14  1  0.525950  0.751337  0.000166  1
  W  W15  1  0.603607  0.880580  0.356422  1
  W  W16  1  0.607299  0.620096  0.642913  1
  W  W17  1  0.892701  0.120096  0.857087  1
  W  W18  1  0.896393  0.380580  0.143578  1
  W  W19  1  0.974050  0.251337  0.499834  1
  O  O20  1  0.070870  0.100014  0.868338  1
  O  O21  1  0.077835  0.344381  0.581330  1
  O  O22  1  0.076622  0.175291  0.409612  1
  O  O23  1  0.073807  0.409749  0.136961  1
  O  O24  1  0.113243  0.874005  0.433781  1
  O  O25  1  0.132140  0.792625  0.833771  1
  O  O26  1  0.142556  0.708631  0.167138  1
  O  O27  1  0.145484  0.641592  0.557082  1
  O  O28  1  0.170091  0.982877  0.238278  1
  O  O29  1  0.176753  0.519193  0.763284  1
  O  O30  1  0.180758  0.577812  0.969194  1
  O  O31  1  0.185792  0.927751  0.032788  1
  O  O32  1  0.314208  0.427751  0.467212  1
  O  O33  1  0.319242  0.077812  0.530806  1
  O  O34  1  0.323247  0.019193  0.736716  1
  O  O35  1  0.329910  0.482877  0.261722  1
  O  O36  1  0.354516  0.141592  0.942918  1
  O  O37  1  0.357444  0.208631  0.332862  1
  O  O38  1  0.367860  0.292625  0.666229  1
  O  O39  1  0.386757  0.374005  0.066219  1
  O  O40  1  0.422165  0.844381  0.918670  1
  O  O41  1  0.426193  0.909749  0.363039  1
  O  O42  1  0.423378  0.675291  0.090388  1
  O  O43  1  0.429130  0.600014  0.631662  1
  O  O44  1  0.570870  0.399986  0.368338  1
  O  O45  1  0.576622  0.324709  0.909612  1
  O  O46  1  0.573807  0.090251  0.636961  1
  O  O47  1  0.577835  0.155619  0.081330  1
  O  O48  1  0.613243  0.625995  0.933781  1
  O  O49  1  0.632140  0.707375  0.333771  1
  O  O50  1  0.642556  0.791369  0.667138  1
  O  O51  1  0.645484  0.858408  0.057082  1
  O  O52  1  0.670091  0.517123  0.738278  1
  O  O53  1  0.676753  0.980807  0.263284  1
  O  O54  1  0.680758  0.922188  0.469194  1
  O  O55  1  0.685792  0.572249  0.532788  1
  O  O56  1  0.814208  0.072249  0.967212  1
  O  O57  1  0.819242  0.422188  0.030806  1
  O  O58  1  0.823247  0.480807  0.236716  1
  O  O59  1  0.829909  0.017123  0.761722  1
  O  O60  1  0.854516  0.358408  0.442918  1
  O  O61  1  0.857444  0.291369  0.832862  1
  O  O62  1  0.867860  0.207375  0.166229  1
  O  O63  1  0.886757  0.125995  0.566219  1
  O  O64  1  0.926193  0.590251  0.863039  1
  O  O65  1  0.923378  0.824709  0.590388  1
  O  O66  1  0.922165  0.655619  0.418670  1
  O  O67  1  0.929130  0.899986  0.131662  1
