# generated using pymatgen
data_Er2WO6
_symmetry_space_group_name_H-M   'P 1'
_cell_length_a   5.23894951
_cell_length_b   9.10375982
_cell_length_c   9.92868536
_cell_angle_alpha   90.00000000
_cell_angle_beta   90.00000000
_cell_angle_gamma   90.00000000
_symmetry_Int_Tables_number   1
_chemical_formula_structural   Er2WO6
_chemical_formula_sum   'Er8 W4 O24'
_cell_volume   473.54009020
_cell_formula_units_Z   4
loop_
 _symmetry_equiv_pos_site_id
 _symmetry_equiv_pos_as_xyz
  1  'x, y, z'
loop_
 _atom_site_type_symbol
 _atom_site_label
 _atom_site_symmetry_multiplicity
 _atom_site_fract_x
 _atom_site_fract_y
 _atom_site_fract_z
 _atom_site_occupancy
  O  O0  1  0.254366  0.088544  0.504035  1
  O  O1  1  0.754366  0.411456  0.495965  1
  O  O2  1  0.745634  0.588544  0.995965  1
  O  O3  1  0.245634  0.911456  0.004035  1
  O  O4  1  0.735089  0.116829  0.568823  1
  O  O5  1  0.235089  0.383171  0.431177  1
  O  O6  1  0.264911  0.616829  0.931177  1
  O  O7  1  0.764911  0.883171  0.068823  1
  O  O8  1  0.592940  0.842173  0.531843  1
  O  O9  1  0.092940  0.657827  0.468157  1
  O  O10  1  0.407060  0.342173  0.968157  1
  O  O11  1  0.907060  0.157827  0.031843  1
  O  O12  1  0.193674  0.857554  0.264342  1
  O  O13  1  0.693674  0.642446  0.735658  1
  O  O14  1  0.806326  0.357554  0.235658  1
  O  O15  1  0.306326  0.142446  0.764342  1
  O  O16  1  0.824704  0.046353  0.301614  1
  O  O17  1  0.324704  0.453647  0.698386  1
  O  O18  1  0.175296  0.546353  0.198386  1
  O  O19  1  0.675296  0.953647  0.801614  1
  O  O20  1  0.321961  0.137426  0.181169  1
  O  O21  1  0.821961  0.362574  0.818831  1
  O  O22  1  0.678039  0.637426  0.318831  1
  O  O23  1  0.178039  0.862574  0.681169  1
  Er  Er24  1  0.485070  0.603804  0.534551  1
  Er  Er25  1  0.985070  0.896196  0.465449  1
  Er  Er26  1  0.514930  0.103804  0.965449  1
  Er  Er27  1  0.014930  0.396196  0.034551  1
  Er  Er28  1  0.958636  0.781272  0.871342  1
  Er  Er29  1  0.458636  0.718728  0.128658  1
  Er  Er30  1  0.041364  0.281272  0.628658  1
  Er  Er31  1  0.541364  0.218728  0.371342  1
  W  W32  1  0.462835  0.995630  0.652269  1
  W  W33  1  0.962835  0.504370  0.347731  1
  W  W34  1  0.537165  0.495630  0.847731  1
  W  W35  1  0.037165  0.004370  0.152269  1
