# generated using pymatgen
data_Er2WO6
_symmetry_space_group_name_H-M   'P 1'
_cell_length_a   5.35860600
_cell_length_b   7.66299230
_cell_length_c   11.40306620
_cell_angle_alpha   104.66280948
_cell_angle_beta   90.00000000
_cell_angle_gamma   90.00000000
_symmetry_Int_Tables_number   1
_chemical_formula_structural   Er2WO6
_chemical_formula_sum   'Er8 W4 O24'
_cell_volume   452.99397619
_cell_formula_units_Z   4
loop_
 _symmetry_equiv_pos_site_id
 _symmetry_equiv_pos_as_xyz
  1  'x, y, z'
loop_
 _atom_site_type_symbol
 _atom_site_label
 _atom_site_symmetry_multiplicity
 _atom_site_fract_x
 _atom_site_fract_y
 _atom_site_fract_z
 _atom_site_occupancy
  O  O0  1  0.459090  0.791637  0.273760  1
  O  O1  1  0.459090  0.208363  0.226240  1
  O  O2  1  0.540910  0.208363  0.726240  1
  O  O3  1  0.540910  0.791637  0.773760  1
  O  O4  1  0.043501  0.940477  0.104609  1
  O  O5  1  0.043501  0.059523  0.395391  1
  O  O6  1  0.956499  0.059523  0.895391  1
  O  O7  1  0.956499  0.940477  0.604609  1
  O  O8  1  0.979091  0.710255  0.228940  1
  O  O9  1  0.979091  0.289745  0.271060  1
  O  O10  1  0.020909  0.289745  0.771060  1
  O  O11  1  0.020909  0.710255  0.728940  1
  O  O12  1  0.848719  0.633982  0.450788  1
  O  O13  1  0.848719  0.366018  0.049212  1
  O  O14  1  0.151281  0.366018  0.549212  1
  O  O15  1  0.151281  0.633982  0.950788  1
  O  O16  1  0.637999  0.488869  0.614905  1
  O  O17  1  0.637999  0.511131  0.885095  1
  O  O18  1  0.362001  0.511131  0.385095  1
  O  O19  1  0.362001  0.488869  0.114905  1
  O  O20  1  0.463766  0.847209  0.569409  1
  O  O21  1  0.463766  0.152791  0.930591  1
  O  O22  1  0.536234  0.152791  0.430591  1
  O  O23  1  0.536234  0.847209  0.069409  1
  Er  Er24  1  0.183523  0.794242  0.421743  1
  Er  Er25  1  0.183523  0.205758  0.078257  1
  Er  Er26  1  0.816477  0.205758  0.578257  1
  Er  Er27  1  0.816477  0.794242  0.921743  1
  Er  Er28  1  0.684150  0.500000  0.250000  1
  Er  Er29  1  0.315850  0.500000  0.750000  1
  Er  Er30  1  0.740176  0.000000  0.250000  1
  Er  Er31  1  0.259824  0.000000  0.750000  1
  W  W32  1  0.256064  0.723443  0.114796  1
  W  W33  1  0.256064  0.276557  0.385204  1
  W  W34  1  0.743936  0.276557  0.885204  1
  W  W35  1  0.743936  0.723443  0.614796  1
