# generated using pymatgen
data_Er4Zr3O12
_symmetry_space_group_name_H-M   'P 1'
_cell_length_a   6.41994096
_cell_length_b   6.39215608
_cell_length_c   12.83467886
_cell_angle_alpha   99.45898044
_cell_angle_beta   99.11522956
_cell_angle_gamma   99.33111164
_symmetry_Int_Tables_number   1
_chemical_formula_structural   Er4Zr3O12
_chemical_formula_sum   'Er8 Zr6 O24'
_cell_volume   503.31230233
_cell_formula_units_Z   2
loop_
 _symmetry_equiv_pos_site_id
 _symmetry_equiv_pos_as_xyz
  1  'x, y, z'
loop_
 _atom_site_type_symbol
 _atom_site_label
 _atom_site_symmetry_multiplicity
 _atom_site_fract_x
 _atom_site_fract_y
 _atom_site_fract_z
 _atom_site_occupancy
  Er  Er0  1  0.137398  0.609799  0.653225  1
  Er  Er1  1  0.390059  0.690621  0.930726  1
  Er  Er2  1  0.388891  0.696912  0.430746  1
  Er  Er3  1  0.308577  0.139731  0.304059  1
  Er  Er4  1  0.609941  0.309379  0.569274  1
  Er  Er5  1  0.691423  0.860269  0.195941  1
  Er  Er6  1  0.862602  0.390201  0.846775  1
  Er  Er7  1  0.611109  0.303088  0.069254  1
  Zr  Zr8  1  0.143616  0.610448  0.156560  1
  Zr  Zr9  1  0.994593  0.995009  0.997563  1
  Zr  Zr10  1  0.318479  0.143990  0.804950  1
  Zr  Zr11  1  0.681521  0.856010  0.695050  1
  Zr  Zr12  1  0.005407  0.004991  0.502437  1
  Zr  Zr13  1  0.856384  0.389552  0.343440  1
  O  O14  1  0.055664  0.682087  0.961955  1
  O  O15  1  0.094366  0.958806  0.661588  1
  O  O16  1  0.040828  0.678342  0.455147  1
  O  O17  1  0.181010  0.413774  0.787573  1
  O  O18  1  0.079439  0.927151  0.156766  1
  O  O19  1  0.311310  0.078054  0.961186  1
  O  O20  1  0.170333  0.430335  0.286612  1
  O  O21  1  0.425427  0.827645  0.784448  1
  O  O22  1  0.317824  0.073974  0.471861  1
  O  O23  1  0.434951  0.591884  0.591843  1
  O  O24  1  0.408358  0.815234  0.281442  1
  O  O25  1  0.565049  0.408116  0.908157  1
  O  O26  1  0.417710  0.576735  0.091093  1
  O  O27  1  0.574573  0.172355  0.715552  1
  O  O28  1  0.582290  0.423265  0.408907  1
  O  O29  1  0.688690  0.921946  0.538814  1
  O  O30  1  0.591642  0.184766  0.218558  1
  O  O31  1  0.818990  0.586226  0.712427  1
  O  O32  1  0.682176  0.926026  0.028139  1
  O  O33  1  0.905634  0.041194  0.838412  1
  O  O34  1  0.829667  0.569665  0.213388  1
  O  O35  1  0.944336  0.317913  0.538045  1
  O  O36  1  0.920561  0.072849  0.343234  1
  O  O37  1  0.959172  0.321658  0.044853  1
