# generated using pymatgen
data_Eu6Mo10O39
_symmetry_space_group_name_H-M   'P 1'
_cell_length_a   11.98834786
_cell_length_b   11.98834660
_cell_length_c   14.26968387
_cell_angle_alpha   96.27483973
_cell_angle_beta   96.27483912
_cell_angle_gamma   116.25622830
_symmetry_Int_Tables_number   1
_chemical_formula_structural   Eu6Mo10O39
_chemical_formula_sum   'Eu12 Mo20 O78'
_cell_volume   1799.41453068
_cell_formula_units_Z   2
loop_
 _symmetry_equiv_pos_site_id
 _symmetry_equiv_pos_as_xyz
  1  'x, y, z'
loop_
 _atom_site_type_symbol
 _atom_site_label
 _atom_site_symmetry_multiplicity
 _atom_site_fract_x
 _atom_site_fract_y
 _atom_site_fract_z
 _atom_site_occupancy
  Eu  Eu0  1  0.711067  0.030441  0.357485  1
  Eu  Eu1  1  0.059495  0.758964  0.412638  1
  Eu  Eu2  1  0.940505  0.241036  0.587362  1
  Eu  Eu3  1  0.478979  0.361348  0.415312  1
  Eu  Eu4  1  0.638652  0.521021  0.084688  1
  Eu  Eu5  1  0.521021  0.638652  0.584688  1
  Eu  Eu6  1  0.030441  0.711067  0.857485  1
  Eu  Eu7  1  0.241036  0.940505  0.087362  1
  Eu  Eu8  1  0.758964  0.059495  0.912638  1
  Eu  Eu9  1  0.969559  0.288933  0.142515  1
  Eu  Eu10  1  0.361348  0.478979  0.915312  1
  Eu  Eu11  1  0.288933  0.969559  0.642515  1
  Mo  Mo12  1  0.741232  0.432861  0.661765  1
  Mo  Mo13  1  0.893273  0.937437  0.136199  1
  Mo  Mo14  1  0.106727  0.062563  0.863801  1
  Mo  Mo15  1  0.996967  0.619324  0.118028  1
  Mo  Mo16  1  0.687403  0.684153  0.360866  1
  Mo  Mo17  1  0.432861  0.741232  0.161765  1
  Mo  Mo18  1  0.383283  0.819494  0.861595  1
  Mo  Mo19  1  0.616717  0.180506  0.138405  1
  Mo  Mo20  1  0.003033  0.380676  0.881972  1
  Mo  Mo21  1  0.684153  0.687403  0.860866  1
  Mo  Mo22  1  0.312597  0.315847  0.639134  1
  Mo  Mo23  1  0.315847  0.312597  0.139134  1
  Mo  Mo24  1  0.258768  0.567139  0.338235  1
  Mo  Mo25  1  0.937437  0.893273  0.636199  1
  Mo  Mo26  1  0.619324  0.996967  0.618028  1
  Mo  Mo27  1  0.819494  0.383283  0.361595  1
  Mo  Mo28  1  0.380676  0.003033  0.381972  1
  Mo  Mo29  1  0.062563  0.106727  0.363801  1
  Mo  Mo30  1  0.567139  0.258768  0.838235  1
  Mo  Mo31  1  0.180506  0.616717  0.638405  1
  O  O32  1  0.023866  0.704079  0.235410  1
  O  O33  1  0.871994  0.582174  0.706315  1
  O  O34  1  0.630684  0.616764  0.236189  1
  O  O35  1  0.706988  0.844197  0.888263  1
  O  O36  1  0.295921  0.976134  0.264590  1
  O  O37  1  0.416027  0.416689  0.064251  1
  O  O38  1  0.058914  0.465131  0.582054  1
  O  O39  1  0.155803  0.293012  0.611737  1
  O  O40  1  0.265558  0.827001  0.928886  1
  O  O41  1  0.327120  0.608184  0.642876  1
  O  O42  1  0.961497  0.127721  0.441950  1
  O  O43  1  0.023371  0.145281  0.241051  1
  O  O44  1  0.726770  0.067196  0.535380  1
  O  O45  1  0.643232  0.145307  0.257479  1
  O  O46  1  0.688303  0.833067  0.384835  1
  O  O47  1  0.734442  0.172999  0.071114  1
  O  O48  1  0.559056  0.344487  0.943656  1
  O  O49  1  0.494231  0.943903  0.378919  1
  O  O50  1  0.220831  0.221930  0.905276  1
  O  O51  1  0.221930  0.220831  0.405276  1
  O  O52  1  0.440944  0.655513  0.056344  1
  O  O53  1  0.172999  0.734442  0.571114  1
  O  O54  1  0.293012  0.155803  0.111737  1
  O  O55  1  0.616764  0.630684  0.736189  1
  O  O56  1  0.505768  0.056097  0.621081  1
  O  O57  1  0.932804  0.273230  0.964620  1
  O  O58  1  0.943903  0.494231  0.878919  1
  O  O59  1  0.417826  0.128006  0.793685  1
  O  O60  1  0.391816  0.672880  0.857124  1
  O  O61  1  0.369316  0.383236  0.763811  1
  O  O62  1  0.127721  0.961497  0.941950  1
  O  O63  1  0.833067  0.688303  0.884835  1
  O  O64  1  0.372149  0.627851  0.250000  1
  O  O65  1  0.830745  0.533021  0.075692  1
  O  O66  1  0.938936  0.041401  0.635617  1
  O  O67  1  0.533021  0.830745  0.575692  1
  O  O68  1  0.854693  0.356768  0.242521  1
  O  O69  1  0.166933  0.311697  0.115165  1
  O  O70  1  0.582174  0.871994  0.206315  1
  O  O71  1  0.311697  0.166933  0.615165  1
  O  O72  1  0.827001  0.265558  0.428886  1
  O  O73  1  0.778070  0.779169  0.594724  1
  O  O74  1  0.872279  0.038503  0.058050  1
  O  O75  1  0.976629  0.854719  0.758949  1
  O  O76  1  0.383236  0.369316  0.263811  1
  O  O77  1  0.779169  0.778070  0.094725  1
  O  O78  1  0.145307  0.643232  0.757479  1
  O  O79  1  0.608184  0.327120  0.142876  1
  O  O80  1  0.056097  0.505768  0.121081  1
  O  O81  1  0.655513  0.440944  0.556344  1
  O  O82  1  0.203394  0.678193  0.367068  1
  O  O83  1  0.583311  0.583973  0.435749  1
  O  O84  1  0.672880  0.391816  0.357124  1
  O  O85  1  0.976134  0.295921  0.764590  1
  O  O86  1  0.038503  0.872279  0.558050  1
  O  O87  1  0.061064  0.958599  0.364383  1
  O  O88  1  0.704079  0.023866  0.735410  1
  O  O89  1  0.344487  0.559056  0.443656  1
  O  O90  1  0.627851  0.372149  0.750000  1
  O  O91  1  0.067196  0.726770  0.035380  1
  O  O92  1  0.796606  0.321807  0.632932  1
  O  O93  1  0.534869  0.941086  0.917946  1
  O  O94  1  0.465131  0.058914  0.082054  1
  O  O95  1  0.583973  0.583311  0.935749  1
  O  O96  1  0.958599  0.061064  0.864383  1
  O  O97  1  0.678193  0.203394  0.867068  1
  O  O98  1  0.356768  0.854693  0.742521  1
  O  O99  1  0.128006  0.417826  0.293685  1
  O  O100  1  0.466979  0.169255  0.424308  1
  O  O101  1  0.416689  0.416027  0.564251  1
  O  O102  1  0.854719  0.976629  0.258949  1
  O  O103  1  0.844197  0.706988  0.388263  1
  O  O104  1  0.145281  0.023371  0.741051  1
  O  O105  1  0.941086  0.534869  0.417946  1
  O  O106  1  0.273230  0.932804  0.464620  1
  O  O107  1  0.169255  0.466979  0.924308  1
  O  O108  1  0.041401  0.938936  0.135617  1
  O  O109  1  0.321807  0.796606  0.132932  1
