# generated using pymatgen
data_Eu3NbO7
_symmetry_space_group_name_H-M   'P 1'
_cell_length_a   7.48848102
_cell_length_b   7.69143586
_cell_length_c   10.82379040
_cell_angle_alpha   90.00000000
_cell_angle_beta   90.00000000
_cell_angle_gamma   90.00000000
_symmetry_Int_Tables_number   1
_chemical_formula_structural   Eu3NbO7
_chemical_formula_sum   'Eu12 Nb4 O28'
_cell_volume   623.41971145
_cell_formula_units_Z   4
loop_
 _symmetry_equiv_pos_site_id
 _symmetry_equiv_pos_as_xyz
  1  'x, y, z'
loop_
 _atom_site_type_symbol
 _atom_site_label
 _atom_site_symmetry_multiplicity
 _atom_site_fract_x
 _atom_site_fract_y
 _atom_site_fract_z
 _atom_site_occupancy
  Eu  Eu0  1  0.022951  0.506029  0.744082  1
  Eu  Eu1  1  0.205198  0.749955  0.013845  1
  Eu  Eu2  1  0.214277  0.743895  0.475798  1
  Eu  Eu3  1  0.285723  0.256105  0.975798  1
  Eu  Eu4  1  0.294802  0.250045  0.513845  1
  Eu  Eu5  1  0.477049  0.493971  0.244082  1
  Eu  Eu6  1  0.522951  0.993971  0.255918  1
  Eu  Eu7  1  0.705198  0.750045  0.986155  1
  Eu  Eu8  1  0.714277  0.756105  0.524202  1
  Eu  Eu9  1  0.785723  0.243895  0.024202  1
  Eu  Eu10  1  0.794802  0.249955  0.486155  1
  Eu  Eu11  1  0.977049  0.006029  0.755918  1
  Nb  Nb12  1  0.006097  0.996236  0.248870  1
  Nb  Nb13  1  0.493903  0.003764  0.748870  1
  Nb  Nb14  1  0.506097  0.503764  0.751130  1
  Nb  Nb15  1  0.993903  0.496236  0.251130  1
  O  O16  1  0.013070  0.260518  0.877443  1
  O  O17  1  0.035509  0.245288  0.606708  1
  O  O18  1  0.075779  0.752323  0.243351  1
  O  O19  1  0.146298  0.044171  0.102804  1
  O  O20  1  0.190023  0.471267  0.118843  1
  O  O21  1  0.199879  0.037917  0.368679  1
  O  O22  1  0.210818  0.458703  0.368667  1
  O  O23  1  0.289182  0.541297  0.868667  1
  O  O24  1  0.300121  0.962083  0.868679  1
  O  O25  1  0.309977  0.528733  0.618843  1
  O  O26  1  0.353702  0.955829  0.602804  1
  O  O27  1  0.424221  0.247677  0.743351  1
  O  O28  1  0.464491  0.754712  0.106708  1
  O  O29  1  0.486930  0.739482  0.377443  1
  O  O30  1  0.513070  0.239482  0.122557  1
  O  O31  1  0.535509  0.254712  0.393292  1
  O  O32  1  0.575779  0.747677  0.756649  1
  O  O33  1  0.646298  0.455829  0.897196  1
  O  O34  1  0.690023  0.028733  0.881157  1
  O  O35  1  0.699879  0.462083  0.631321  1
  O  O36  1  0.710818  0.041297  0.631333  1
  O  O37  1  0.789182  0.958703  0.131333  1
  O  O38  1  0.800121  0.537917  0.131321  1
  O  O39  1  0.809977  0.971267  0.381157  1
  O  O40  1  0.853702  0.544171  0.397196  1
  O  O41  1  0.924221  0.252323  0.256649  1
  O  O42  1  0.964491  0.745288  0.893292  1
  O  O43  1  0.986930  0.760518  0.622557  1
