# generated using pymatgen
data_Eu4Au2O9
_symmetry_space_group_name_H-M   'P 1'
_cell_length_a   6.18138765
_cell_length_b   11.94098349
_cell_length_c   11.99598676
_cell_angle_alpha   90.00000000
_cell_angle_beta   90.00000000
_cell_angle_gamma   90.00000000
_symmetry_Int_Tables_number   1
_chemical_formula_structural   Eu4Au2O9
_chemical_formula_sum   'Eu16 Au8 O36'
_cell_volume   885.44594983
_cell_formula_units_Z   4
loop_
 _symmetry_equiv_pos_site_id
 _symmetry_equiv_pos_as_xyz
  1  'x, y, z'
loop_
 _atom_site_type_symbol
 _atom_site_label
 _atom_site_symmetry_multiplicity
 _atom_site_fract_x
 _atom_site_fract_y
 _atom_site_fract_z
 _atom_site_occupancy
  O  O0  1  0.935700  0.444890  0.386821  1
  O  O1  1  0.935700  0.055110  0.613179  1
  O  O2  1  0.564300  0.944890  0.113179  1
  O  O3  1  0.564300  0.555110  0.886821  1
  O  O4  1  0.064300  0.555110  0.613179  1
  O  O5  1  0.064300  0.944890  0.386821  1
  O  O6  1  0.435700  0.055110  0.886821  1
  O  O7  1  0.435700  0.444890  0.113179  1
  O  O8  1  0.944622  0.352732  0.164070  1
  O  O9  1  0.944622  0.147268  0.835930  1
  O  O10  1  0.555378  0.852732  0.335930  1
  O  O11  1  0.555378  0.647268  0.664070  1
  O  O12  1  0.055378  0.647268  0.835930  1
  O  O13  1  0.055378  0.852732  0.164070  1
  O  O14  1  0.623115  0.159193  0.195059  1
  O  O15  1  0.444622  0.147268  0.664070  1
  O  O16  1  0.606511  0.086549  0.420310  1
  O  O17  1  0.606511  0.413451  0.579690  1
  O  O18  1  0.893489  0.586549  0.079690  1
  O  O19  1  0.893489  0.913451  0.920310  1
  O  O20  1  0.393489  0.913451  0.579690  1
  O  O21  1  0.393489  0.586549  0.420310  1
  O  O22  1  0.106511  0.413451  0.920310  1
  O  O23  1  0.106511  0.086549  0.079690  1
  O  O24  1  0.024465  0.250000  0.500000  1
  O  O25  1  0.475535  0.750000  0.000000  1
  O  O26  1  0.975535  0.750000  0.500000  1
  O  O27  1  0.524465  0.250000  0.000000  1
  O  O28  1  0.123115  0.159193  0.304941  1
  O  O29  1  0.123115  0.340807  0.695059  1
  O  O30  1  0.376885  0.659193  0.195059  1
  O  O31  1  0.376885  0.840807  0.804941  1
  O  O32  1  0.876885  0.840807  0.695059  1
  O  O33  1  0.876885  0.659193  0.304941  1
  O  O34  1  0.623115  0.340807  0.804941  1
  O  O35  1  0.444622  0.352732  0.335930  1
  Eu  Eu36  1  0.743009  0.087841  0.004634  1
  Eu  Eu37  1  0.743009  0.412159  0.995366  1
  Eu  Eu38  1  0.756991  0.587841  0.495366  1
  Eu  Eu39  1  0.756991  0.912159  0.504634  1
  Eu  Eu40  1  0.256991  0.912159  0.995366  1
  Eu  Eu41  1  0.256991  0.587841  0.004634  1
  Eu  Eu42  1  0.243009  0.412159  0.504634  1
  Eu  Eu43  1  0.243009  0.087841  0.495366  1
  Eu  Eu44  1  0.801311  0.260552  0.339956  1
  Eu  Eu45  1  0.801311  0.239448  0.660044  1
  Eu  Eu46  1  0.698689  0.760552  0.160044  1
  Eu  Eu47  1  0.698689  0.739448  0.839956  1
  Eu  Eu48  1  0.198689  0.739448  0.660044  1
  Eu  Eu49  1  0.198689  0.760552  0.339956  1
  Eu  Eu50  1  0.301311  0.239448  0.839956  1
  Eu  Eu51  1  0.301311  0.260552  0.160044  1
  Au  Au52  1  0.576182  0.010146  0.268909  1
  Au  Au53  1  0.576182  0.489854  0.731091  1
  Au  Au54  1  0.923818  0.510146  0.231091  1
  Au  Au55  1  0.923818  0.989854  0.768909  1
  Au  Au56  1  0.423818  0.989854  0.731091  1
  Au  Au57  1  0.423818  0.510146  0.268909  1
  Au  Au58  1  0.076182  0.489854  0.768909  1
  Au  Au59  1  0.076182  0.010146  0.231091  1
