# generated using pymatgen
data_Eu4Mo4O11
_symmetry_space_group_name_H-M   'P 1'
_cell_length_a   5.80062017
_cell_length_b   11.15512187
_cell_length_c   16.59717806
_cell_angle_alpha   90.00000000
_cell_angle_beta   90.00000000
_cell_angle_gamma   90.00000000
_symmetry_Int_Tables_number   1
_chemical_formula_structural   Eu4Mo4O11
_chemical_formula_sum   'Eu16 Mo16 O44'
_cell_volume   1073.94737542
_cell_formula_units_Z   4
loop_
 _symmetry_equiv_pos_site_id
 _symmetry_equiv_pos_as_xyz
  1  'x, y, z'
loop_
 _atom_site_type_symbol
 _atom_site_label
 _atom_site_symmetry_multiplicity
 _atom_site_fract_x
 _atom_site_fract_y
 _atom_site_fract_z
 _atom_site_occupancy
  Eu  Eu0  1  0.500000  0.819318  0.220166  1
  Eu  Eu1  1  0.500000  0.077961  0.095943  1
  Eu  Eu2  1  0.000000  0.116394  0.924154  1
  Eu  Eu3  1  0.500000  0.680682  0.720166  1
  Eu  Eu4  1  0.000000  0.616394  0.575846  1
  Eu  Eu5  1  0.000000  0.906420  0.762534  1
  Eu  Eu6  1  0.000000  0.383606  0.424154  1
  Eu  Eu7  1  0.000000  0.883606  0.075846  1
  Eu  Eu8  1  0.000000  0.593580  0.262534  1
  Eu  Eu9  1  0.000000  0.093580  0.237466  1
  Eu  Eu10  1  0.500000  0.922039  0.904057  1
  Eu  Eu11  1  0.000000  0.406420  0.737466  1
  Eu  Eu12  1  0.500000  0.319318  0.279834  1
  Eu  Eu13  1  0.500000  0.577961  0.404057  1
  Eu  Eu14  1  0.500000  0.422039  0.595943  1
  Eu  Eu15  1  0.500000  0.180682  0.779834  1
  Mo  Mo16  1  0.500000  0.405937  0.930606  1
  Mo  Mo17  1  0.500000  0.094063  0.430606  1
  Mo  Mo18  1  0.000000  0.582844  0.059083  1
  Mo  Mo19  1  0.000000  0.082844  0.440918  1
  Mo  Mo20  1  0.277278  0.362399  0.087915  1
  Mo  Mo21  1  0.722722  0.362399  0.087915  1
  Mo  Mo22  1  0.000000  0.417156  0.940917  1
  Mo  Mo23  1  0.500000  0.594063  0.069394  1
  Mo  Mo24  1  0.277278  0.637601  0.912085  1
  Mo  Mo25  1  0.277278  0.862399  0.412085  1
  Mo  Mo26  1  0.000000  0.917156  0.559083  1
  Mo  Mo27  1  0.722722  0.862399  0.412085  1
  Mo  Mo28  1  0.500000  0.905937  0.569394  1
  Mo  Mo29  1  0.722722  0.637601  0.912085  1
  Mo  Mo30  1  0.722722  0.137601  0.587915  1
  Mo  Mo31  1  0.277278  0.137601  0.587915  1
  O  O32  1  0.500000  0.460097  0.162208  1
  O  O33  1  0.238753  0.000000  0.000000  1
  O  O34  1  0.244047  0.460302  0.330372  1
  O  O35  1  0.237951  0.682076  0.131342  1
  O  O36  1  0.755953  0.460302  0.330372  1
  O  O37  1  0.260211  0.734983  0.331312  1
  O  O38  1  0.761247  0.500000  0.500000  1
  O  O39  1  0.500000  0.761553  0.485024  1
  O  O40  1  0.000000  0.953041  0.352566  1
  O  O41  1  0.739789  0.765017  0.831312  1
  O  O42  1  0.739789  0.265017  0.668688  1
  O  O43  1  0.762049  0.317924  0.868658  1
  O  O44  1  0.755953  0.539698  0.669628  1
  O  O45  1  0.500000  0.039903  0.662208  1
  O  O46  1  0.755953  0.039698  0.830372  1
  O  O47  1  0.237951  0.182076  0.368658  1
  O  O48  1  0.761247  0.000000  0.000000  1
  O  O49  1  0.260211  0.765017  0.831312  1
  O  O50  1  0.260211  0.265017  0.668688  1
  O  O51  1  0.755953  0.960302  0.169628  1
  O  O52  1  0.260211  0.234983  0.168688  1
  O  O53  1  0.500000  0.738447  0.985024  1
  O  O54  1  0.000000  0.453041  0.147434  1
  O  O55  1  0.000000  0.278051  0.023301  1
  O  O56  1  0.237951  0.817924  0.631342  1
  O  O57  1  0.762049  0.182076  0.368658  1
  O  O58  1  0.000000  0.778051  0.476699  1
  O  O59  1  0.500000  0.261553  0.014976  1
  O  O60  1  0.762049  0.682076  0.131342  1
  O  O61  1  0.739789  0.734983  0.331312  1
  O  O62  1  0.500000  0.960097  0.337792  1
  O  O63  1  0.500000  0.238447  0.514976  1
  O  O64  1  0.500000  0.539903  0.837792  1
  O  O65  1  0.000000  0.721949  0.976699  1
  O  O66  1  0.244047  0.039698  0.830372  1
  O  O67  1  0.244047  0.539698  0.669628  1
  O  O68  1  0.762049  0.817924  0.631342  1
  O  O69  1  0.238753  0.500000  0.500000  1
  O  O70  1  0.000000  0.546959  0.852566  1
  O  O71  1  0.739789  0.234983  0.168688  1
  O  O72  1  0.000000  0.046959  0.647434  1
  O  O73  1  0.000000  0.221949  0.523301  1
  O  O74  1  0.244047  0.960302  0.169628  1
  O  O75  1  0.237951  0.317924  0.868658  1
