# generated using pymatgen
data_Cd2Ru2O7
_symmetry_space_group_name_H-M   'P 1'
_cell_length_a   7.24946369
_cell_length_b   7.24946401
_cell_length_c   7.24946463
_cell_angle_alpha   60.00000192
_cell_angle_beta   60.00000047
_cell_angle_gamma   60.00000455
_symmetry_Int_Tables_number   1
_chemical_formula_structural   Cd2Ru2O7
_chemical_formula_sum   'Cd4 Ru4 O14'
_cell_volume   269.40319211
_cell_formula_units_Z   2
loop_
 _symmetry_equiv_pos_site_id
 _symmetry_equiv_pos_as_xyz
  1  'x, y, z'
loop_
 _atom_site_type_symbol
 _atom_site_label
 _atom_site_symmetry_multiplicity
 _atom_site_fract_x
 _atom_site_fract_y
 _atom_site_fract_z
 _atom_site_occupancy
  Ru  Ru0  1  0.000000  0.000000  0.000000  1
  Ru  Ru1  1  0.000000  0.000000  0.500000  1
  Ru  Ru2  1  0.500000  0.000000  0.000000  1
  Ru  Ru3  1  0.000000  0.500000  0.000000  1
  Cd  Cd4  1  0.500000  0.500000  0.500000  1
  Cd  Cd5  1  0.500000  0.500000  0.000000  1
  Cd  Cd6  1  0.000000  0.500000  0.500000  1
  Cd  Cd7  1  0.500000  0.000000  0.500000  1
  O  O8  1  0.930943  0.319057  0.319057  1
  O  O9  1  0.680943  0.680943  0.069057  1
  O  O10  1  0.069057  0.069057  0.680943  1
  O  O11  1  0.680943  0.069057  0.069057  1
  O  O12  1  0.680943  0.069057  0.680943  1
  O  O13  1  0.069057  0.680943  0.069057  1
  O  O14  1  0.319057  0.930943  0.319057  1
  O  O15  1  0.319057  0.319057  0.930943  1
  O  O16  1  0.930943  0.930943  0.319057  1
  O  O17  1  0.930943  0.319057  0.930943  1
  O  O18  1  0.069057  0.680943  0.680943  1
  O  O19  1  0.319057  0.930943  0.930943  1
  O  O20  1  0.375000  0.375000  0.375000  1
  O  O21  1  0.625000  0.625000  0.625000  1
