# generated using pymatgen
data_EuMn4(CuO4)3
_symmetry_space_group_name_H-M   'P 1'
_cell_length_a   6.44350793
_cell_length_b   6.44350828
_cell_length_c   6.44522553
_cell_angle_alpha   109.38311181
_cell_angle_beta   109.51053268
_cell_angle_gamma   109.48775135
_symmetry_Int_Tables_number   1
_chemical_formula_structural   EuMn4(CuO4)3
_chemical_formula_sum   'Eu1 Mn4 Cu3 O12'
_cell_volume   206.07881408
_cell_formula_units_Z   1
loop_
 _symmetry_equiv_pos_site_id
 _symmetry_equiv_pos_as_xyz
  1  'x, y, z'
loop_
 _atom_site_type_symbol
 _atom_site_label
 _atom_site_symmetry_multiplicity
 _atom_site_fract_x
 _atom_site_fract_y
 _atom_site_fract_z
 _atom_site_occupancy
  Eu  Eu0  1  0.000001  0.000025  -0.000001  1
  Mn  Mn1  1  -0.000023  -0.000022  0.499982  1
  Mn  Mn2  1  0.499982  0.999986  -0.000011  1
  Mn  Mn3  1  0.500022  0.500027  0.500021  1
  Mn  Mn4  1  0.000011  0.500009  0.000001  1
  Cu  Cu5  1  0.499993  -0.000037  0.500033  1
  Cu  Cu6  1  0.500035  0.500049  0.000057  1
  Cu  Cu7  1  0.000008  0.499996  0.499978  1
  O  O8  1  0.171103  0.691904  0.863033  1
  O  O9  1  0.828876  0.308057  0.136891  1
  O  O10  1  0.478341  0.170345  0.307899  1
  O  O11  1  0.862505  0.170673  0.691935  1
  O  O12  1  0.829601  0.692648  0.522256  1
  O  O13  1  0.170389  0.307293  0.477658  1
  O  O14  1  0.307446  0.477907  0.170598  1
  O  O15  1  0.521660  0.829652  0.692111  1
  O  O16  1  0.692652  0.863168  0.170665  1
  O  O17  1  0.137477  0.829322  0.308075  1
  O  O18  1  0.692589  0.522176  0.829451  1
  O  O19  1  0.307333  0.136822  0.829368  1
