# generated using pymatgen
data_Eu(Ni2B)6
_symmetry_space_group_name_H-M   'P 1'
_cell_length_a   6.03505597
_cell_length_b   6.03505611
_cell_length_c   6.03505653
_cell_angle_alpha   104.30943383
_cell_angle_beta   104.30943414
_cell_angle_gamma   104.30943975
_symmetry_Int_Tables_number   1
_chemical_formula_structural   Eu(Ni2B)6
_chemical_formula_sum   'Eu1 Ni12 B6'
_cell_volume   194.94169435
_cell_formula_units_Z   1
loop_
 _symmetry_equiv_pos_site_id
 _symmetry_equiv_pos_as_xyz
  1  'x, y, z'
loop_
 _atom_site_type_symbol
 _atom_site_label
 _atom_site_symmetry_multiplicity
 _atom_site_fract_x
 _atom_site_fract_y
 _atom_site_fract_z
 _atom_site_occupancy
  Eu  Eu0  1  0.000000  0.000000  0.000000  1
  Ni  Ni1  1  0.541976  0.812445  0.541976  1
  Ni  Ni2  1  0.868864  0.500000  0.131136  1
  Ni  Ni3  1  0.500000  0.131136  0.868864  1
  Ni  Ni4  1  0.868864  0.131136  0.500000  1
  Ni  Ni5  1  0.500000  0.868864  0.131136  1
  Ni  Ni6  1  0.541976  0.541976  0.812445  1
  Ni  Ni7  1  0.131136  0.500000  0.868864  1
  Ni  Ni8  1  0.458024  0.458024  0.187555  1
  Ni  Ni9  1  0.131136  0.868864  0.500000  1
  Ni  Ni10  1  0.458024  0.187555  0.458024  1
  Ni  Ni11  1  0.187555  0.458024  0.458024  1
  Ni  Ni12  1  0.812445  0.541976  0.541976  1
  B  B13  1  0.662920  0.233767  0.233767  1
  B  B14  1  0.766233  0.766233  0.337080  1
  B  B15  1  0.766233  0.337080  0.766233  1
  B  B16  1  0.233767  0.662920  0.233767  1
  B  B17  1  0.233767  0.233767  0.662920  1
  B  B18  1  0.337080  0.766233  0.766233  1
