# generated using pymatgen
data_EuNi5
_symmetry_space_group_name_H-M   'P 1'
_cell_length_a   3.89005899
_cell_length_b   5.00689750
_cell_length_c   5.00740148
_cell_angle_alpha   119.99667256
_cell_angle_beta   90.00000000
_cell_angle_gamma   90.00000000
_symmetry_Int_Tables_number   1
_chemical_formula_structural   EuNi5
_chemical_formula_sum   'Eu1 Ni5'
_cell_volume   84.46611002
_cell_formula_units_Z   1
loop_
 _symmetry_equiv_pos_site_id
 _symmetry_equiv_pos_as_xyz
  1  'x, y, z'
loop_
 _atom_site_type_symbol
 _atom_site_label
 _atom_site_symmetry_multiplicity
 _atom_site_fract_x
 _atom_site_fract_y
 _atom_site_fract_z
 _atom_site_occupancy
  Eu  Eu0  1  0.000000  0.999990  0.000000  1
  Ni  Ni1  1  0.000000  0.333314  0.666705  1
  Ni  Ni2  1  0.000000  0.666609  0.333295  1
  Ni  Ni3  1  0.500000  0.499998  0.000000  1
  Ni  Ni4  1  0.500000  0.499995  0.500002  1
  Ni  Ni5  1  0.500000  0.999993  0.499998  1
