# generated using pymatgen
data_Eu(ReO4)2
_symmetry_space_group_name_H-M   'P 1'
_cell_length_a   6.37242648
_cell_length_b   6.37229342
_cell_length_c   6.52460797
_cell_angle_alpha   89.99856829
_cell_angle_beta   90.00050954
_cell_angle_gamma   119.99628404
_symmetry_Int_Tables_number   1
_chemical_formula_structural   Eu(ReO4)2
_chemical_formula_sum   'Eu1 Re2 O8'
_cell_volume   229.45731848
_cell_formula_units_Z   1
loop_
 _symmetry_equiv_pos_site_id
 _symmetry_equiv_pos_as_xyz
  1  'x, y, z'
loop_
 _atom_site_type_symbol
 _atom_site_label
 _atom_site_symmetry_multiplicity
 _atom_site_fract_x
 _atom_site_fract_y
 _atom_site_fract_z
 _atom_site_occupancy
  Eu  Eu0  1  0.000016  -0.000005  -0.000005  1
  Re  Re1  1  0.333269  0.666681  0.302316  1
  Re  Re2  1  0.666588  0.333331  0.697699  1
  O  O3  1  0.223127  0.854656  0.213003  1
  O  O4  1  0.145322  0.368461  0.213012  1
  O  O5  1  0.333310  0.666704  0.568101  1
  O  O6  1  0.368497  0.223164  0.786984  1
  O  O7  1  0.631549  0.776869  0.213016  1
  O  O8  1  0.666612  0.333293  0.431928  1
  O  O9  1  0.854651  0.631516  0.786968  1
  O  O10  1  0.776857  0.145329  0.786980  1
