# generated using pymatgen
data_Cd27Pd8
_symmetry_space_group_name_H-M   'P 1'
_cell_length_a   8.53792588
_cell_length_b   8.53792605
_cell_length_c   39.20180013
_cell_angle_alpha   90.00000000
_cell_angle_beta   90.00000000
_cell_angle_gamma   109.81987173
_symmetry_Int_Tables_number   1
_chemical_formula_structural   Cd27Pd8
_chemical_formula_sum   'Cd54 Pd16'
_cell_volume   2688.38283052
_cell_formula_units_Z   2
loop_
 _symmetry_equiv_pos_site_id
 _symmetry_equiv_pos_as_xyz
  1  'x, y, z'
loop_
 _atom_site_type_symbol
 _atom_site_label
 _atom_site_symmetry_multiplicity
 _atom_site_fract_x
 _atom_site_fract_y
 _atom_site_fract_z
 _atom_site_occupancy
  Cd  Cd0  1  0.799743  0.454633  0.022308  1
  Cd  Cd1  1  0.060394  0.696259  0.159230  1
  Cd  Cd2  1  0.130146  0.383318  0.593407  1
  Cd  Cd3  1  0.284324  0.925711  0.213464  1
  Cd  Cd4  1  0.579697  0.233655  0.084698  1
  Cd  Cd5  1  0.939606  0.303741  0.659230  1
  Cd  Cd6  1  0.460153  0.460153  0.030141  1
  Cd  Cd7  1  0.539847  0.539847  0.530141  1
  Cd  Cd8  1  0.383318  0.130146  0.593407  1
  Cd  Cd9  1  0.604436  0.860226  0.222684  1
  Cd  Cd10  1  0.522419  0.522419  0.195117  1
  Cd  Cd11  1  0.773023  0.427072  0.726429  1
  Cd  Cd12  1  0.226977  0.572928  0.226429  1
  Cd  Cd13  1  0.666997  0.924985  0.528525  1
  Cd  Cd14  1  0.585354  0.816415  0.654152  1
  Cd  Cd15  1  0.046822  0.046822  0.153166  1
  Cd  Cd16  1  0.035237  0.035237  0.731917  1
  Cd  Cd17  1  0.270413  0.922085  0.101280  1
  Cd  Cd18  1  0.816415  0.585354  0.654152  1
  Cd  Cd19  1  0.964763  0.964763  0.231917  1
  Cd  Cd20  1  0.477581  0.477581  0.695117  1
  Cd  Cd21  1  0.420303  0.766345  0.584698  1
  Cd  Cd22  1  0.395564  0.139774  0.722684  1
  Cd  Cd23  1  0.454633  0.799743  0.022308  1
  Cd  Cd24  1  0.860226  0.604436  0.222684  1
  Cd  Cd25  1  0.074289  0.715676  0.713464  1
  Cd  Cd26  1  0.869854  0.616682  0.093407  1
  Cd  Cd27  1  0.200257  0.545367  0.522308  1
  Cd  Cd28  1  0.953178  0.953178  0.653166  1
  Cd  Cd29  1  0.075015  0.333003  0.028525  1
  Cd  Cd30  1  0.925711  0.284324  0.213464  1
  Cd  Cd31  1  0.924985  0.666997  0.528525  1
  Cd  Cd32  1  0.572928  0.226977  0.226429  1
  Cd  Cd33  1  0.139774  0.395564  0.722684  1
  Cd  Cd34  1  0.479517  0.479517  0.616863  1
  Cd  Cd35  1  0.616682  0.869854  0.093407  1
  Cd  Cd36  1  0.414646  0.183585  0.154152  1
  Cd  Cd37  1  0.077915  0.729587  0.601280  1
  Cd  Cd38  1  0.032861  0.032861  0.572997  1
  Cd  Cd39  1  0.696259  0.060394  0.159230  1
  Cd  Cd40  1  0.333003  0.075015  0.028525  1
  Cd  Cd41  1  0.303741  0.939606  0.659230  1
  Cd  Cd42  1  0.967139  0.967139  0.072997  1
  Cd  Cd43  1  0.545367  0.200257  0.522308  1
  Cd  Cd44  1  0.427072  0.773023  0.726429  1
  Cd  Cd45  1  0.233655  0.579697  0.084698  1
  Cd  Cd46  1  0.766345  0.420303  0.584698  1
  Cd  Cd47  1  0.922085  0.270413  0.101280  1
  Cd  Cd48  1  0.520483  0.520483  0.116863  1
  Cd  Cd49  1  0.715676  0.074289  0.713464  1
  Cd  Cd50  1  0.978503  0.978503  0.997994  1
  Cd  Cd51  1  0.183585  0.414646  0.154152  1
  Cd  Cd52  1  0.729587  0.077915  0.601280  1
  Cd  Cd53  1  0.021497  0.021497  0.497994  1
  Pd  Pd54  1  0.257930  0.257930  0.980486  1
  Pd  Pd55  1  0.762684  0.762684  0.153074  1
  Pd  Pd56  1  0.744593  0.091996  0.038933  1
  Pd  Pd57  1  0.237294  0.595949  0.652142  1
  Pd  Pd58  1  0.249223  0.249223  0.091663  1
  Pd  Pd59  1  0.757312  0.757312  0.712377  1
  Pd  Pd60  1  0.908004  0.255407  0.538933  1
  Pd  Pd61  1  0.404051  0.762706  0.152142  1
  Pd  Pd62  1  0.091996  0.744593  0.038933  1
  Pd  Pd63  1  0.762706  0.404051  0.152142  1
  Pd  Pd64  1  0.750777  0.750777  0.591663  1
  Pd  Pd65  1  0.595949  0.237294  0.652142  1
  Pd  Pd66  1  0.255407  0.908004  0.538933  1
  Pd  Pd67  1  0.242688  0.242688  0.212377  1
  Pd  Pd68  1  0.742070  0.742070  0.480486  1
  Pd  Pd69  1  0.237316  0.237316  0.653074  1
