# generated using pymatgen
data_EuZr4O9
_symmetry_space_group_name_H-M   'P 1'
_cell_length_a   3.58218799
_cell_length_b   10.05216417
_cell_length_c   5.25247610
_cell_angle_alpha   105.11468892
_cell_angle_beta   90.06943320
_cell_angle_gamma   79.67257731
_symmetry_Int_Tables_number   1
_chemical_formula_structural   EuZr4O9
_chemical_formula_sum   'Eu1 Zr4 O9'
_cell_volume   179.42741131
_cell_formula_units_Z   1
loop_
 _symmetry_equiv_pos_site_id
 _symmetry_equiv_pos_as_xyz
  1  'x, y, z'
loop_
 _atom_site_type_symbol
 _atom_site_label
 _atom_site_symmetry_multiplicity
 _atom_site_fract_x
 _atom_site_fract_y
 _atom_site_fract_z
 _atom_site_occupancy
  Eu  Eu0  1  0.995282  0.000659  0.961616  1
  Zr  Zr1  1  0.801013  0.393398  0.217727  1
  Zr  Zr2  1  0.607060  0.777459  0.411171  1
  Zr  Zr3  1  0.195913  0.608005  0.825947  1
  Zr  Zr4  1  0.391210  0.224294  0.633786  1
  O  O5  1  0.097465  0.802421  0.167869  1
  O  O6  1  0.700381  0.600094  0.065843  1
  O  O7  1  0.898012  0.198570  0.364964  1
  O  O8  1  0.700721  0.594404  0.564051  1
  O  O9  1  0.297583  0.400957  0.464000  1
  O  O10  1  0.107195  0.780585  0.651195  1
  O  O11  1  0.892925  0.221162  0.869948  1
  O  O12  1  0.297872  0.407411  0.968968  1
  O  O13  1  0.496829  0.000834  0.628135  1
