# generated using pymatgen
data_EuAgO2
_symmetry_space_group_name_H-M   'P 1'
_cell_length_a   3.67010572
_cell_length_b   3.66991308
_cell_length_c   12.44479535
_cell_angle_alpha   90.01094252
_cell_angle_beta   90.09426566
_cell_angle_gamma   120.00184081
_symmetry_Int_Tables_number   1
_chemical_formula_structural   EuAgO2
_chemical_formula_sum   'Eu2 Ag2 O4'
_cell_volume   145.15894474
_cell_formula_units_Z   2
loop_
 _symmetry_equiv_pos_site_id
 _symmetry_equiv_pos_as_xyz
  1  'x, y, z'
loop_
 _atom_site_type_symbol
 _atom_site_label
 _atom_site_symmetry_multiplicity
 _atom_site_fract_x
 _atom_site_fract_y
 _atom_site_fract_z
 _atom_site_occupancy
  Eu  Eu0  1  0.999947  0.000063  -0.000003  1
  Eu  Eu1  1  0.999954  0.999909  0.500014  1
  Ag  Ag2  1  0.333454  0.666875  0.250447  1
  Ag  Ag3  1  0.666452  0.333023  0.749546  1
  O  O4  1  0.332565  0.666499  0.084670  1
  O  O5  1  0.333325  0.666580  0.415489  1
  O  O6  1  0.666856  0.333607  0.584520  1
  O  O7  1  0.667447  0.333644  0.915317  1
