# generated using pymatgen
data_EuAg2
_symmetry_space_group_name_H-M   'P 1'
_cell_length_a   4.82550790
_cell_length_b   6.09502957
_cell_length_c   6.09502926
_cell_angle_alpha   75.98935167
_cell_angle_beta   66.68063163
_cell_angle_gamma   66.68063499
_symmetry_Int_Tables_number   1
_chemical_formula_structural   EuAg2
_chemical_formula_sum   'Eu2 Ag4'
_cell_volume   150.39635357
_cell_formula_units_Z   2
loop_
 _symmetry_equiv_pos_site_id
 _symmetry_equiv_pos_as_xyz
  1  'x, y, z'
loop_
 _atom_site_type_symbol
 _atom_site_label
 _atom_site_symmetry_multiplicity
 _atom_site_fract_x
 _atom_site_fract_y
 _atom_site_fract_z
 _atom_site_occupancy
  Ag  Ag0  1  0.836632  0.111839  0.214897  1
  Ag  Ag1  1  0.163368  0.888161  0.785103  1
  Ag  Ag2  1  0.163368  0.285103  0.388161  1
  Ag  Ag3  1  0.836632  0.714897  0.611839  1
  Eu  Eu4  1  0.456388  0.293612  0.793612  1
  Eu  Eu5  1  0.543612  0.706388  0.206388  1
