# generated using pymatgen
data_Eu(BIr)2
_symmetry_space_group_name_H-M   'P 1'
_cell_length_a   5.59025953
_cell_length_b   5.59025953
_cell_length_c   6.16293058
_cell_angle_alpha   105.47338891
_cell_angle_beta   105.47338888
_cell_angle_gamma   114.31530897
_symmetry_Int_Tables_number   1
_chemical_formula_structural   Eu(BIr)2
_chemical_formula_sum   'Eu2 B4 Ir4'
_cell_volume   152.80725258
_cell_formula_units_Z   2
loop_
 _symmetry_equiv_pos_site_id
 _symmetry_equiv_pos_as_xyz
  1  'x, y, z'
loop_
 _atom_site_type_symbol
 _atom_site_label
 _atom_site_symmetry_multiplicity
 _atom_site_fract_x
 _atom_site_fract_y
 _atom_site_fract_z
 _atom_site_occupancy
  B  B0  1  0.801770  0.198230  0.750000  1
  B  B1  1  0.551770  0.448230  0.250000  1
  B  B2  1  0.448230  0.551770  0.750000  1
  B  B3  1  0.198230  0.801770  0.250000  1
  Eu  Eu4  1  0.125000  0.875000  0.750000  1
  Eu  Eu5  1  0.875000  0.125000  0.250000  1
  Ir  Ir6  1  0.755461  0.505461  0.010922  1
  Ir  Ir7  1  0.505461  0.755461  0.510922  1
  Ir  Ir8  1  0.244539  0.494539  0.989078  1
  Ir  Ir9  1  0.494539  0.244539  0.489078  1
