# generated using pymatgen
data_Eu(CuO2)2
_symmetry_space_group_name_H-M   'P 1'
_cell_length_a   5.84701736
_cell_length_b   5.84354179
_cell_length_c   6.36318086
_cell_angle_alpha   117.30485920
_cell_angle_beta   117.32248717
_cell_angle_gamma   90.05529250
_symmetry_Int_Tables_number   1
_chemical_formula_structural   Eu(CuO2)2
_chemical_formula_sum   'Eu2 Cu4 O8'
_cell_volume   165.36010883
_cell_formula_units_Z   2
loop_
 _symmetry_equiv_pos_site_id
 _symmetry_equiv_pos_as_xyz
  1  'x, y, z'
loop_
 _atom_site_type_symbol
 _atom_site_label
 _atom_site_symmetry_multiplicity
 _atom_site_fract_x
 _atom_site_fract_y
 _atom_site_fract_z
 _atom_site_occupancy
  O  O0  1  0.701488  0.528119  0.848305  1
  O  O1  1  0.146817  0.820186  0.848305  1
  O  O2  1  0.298512  0.471881  0.151695  1
  O  O3  1  0.853183  0.179814  0.151695  1
  O  O4  1  0.528330  0.146968  0.348361  1
  O  O5  1  0.820031  0.701393  0.348361  1
  O  O6  1  0.179969  0.298607  0.651639  1
  O  O7  1  0.471670  0.853032  0.651639  1
  Cu  Cu8  1  0.500000  0.000000  0.000000  1
  Cu  Cu9  1  0.500000  0.500000  0.000000  1
  Cu  Cu10  1  0.000000  0.500000  0.500000  1
  Cu  Cu11  1  0.500000  0.500000  0.500000  1
  Eu  Eu12  1  0.874975  0.124975  0.749950  1
  Eu  Eu13  1  0.125025  0.875025  0.250050  1
