# generated using pymatgen
data_Cd85Pd27
_symmetry_space_group_name_H-M   'P 1'
_cell_length_a   8.83206036
_cell_length_b   8.83206034
_cell_length_c   30.67814834
_cell_angle_alpha   95.43302630
_cell_angle_beta   95.43302628
_cell_angle_gamma   110.01362488
_symmetry_Int_Tables_number   1
_chemical_formula_structural   Cd85Pd27
_chemical_formula_sum   'Cd85 Pd27'
_cell_volume   2217.68646263
_cell_formula_units_Z   1
loop_
 _symmetry_equiv_pos_site_id
 _symmetry_equiv_pos_as_xyz
  1  'x, y, z'
loop_
 _atom_site_type_symbol
 _atom_site_label
 _atom_site_symmetry_multiplicity
 _atom_site_fract_x
 _atom_site_fract_y
 _atom_site_fract_z
 _atom_site_occupancy
  Cd  Cd0  1  0.336177  0.713167  0.777835  1
  Cd  Cd1  1  0.193124  0.550878  0.447655  1
  Cd  Cd2  1  0.550878  0.193124  0.447655  1
  Cd  Cd3  1  0.267151  0.267151  0.095026  1
  Cd  Cd4  1  0.292215  0.061660  0.230871  1
  Cd  Cd5  1  0.401009  0.401009  0.381000  1
  Cd  Cd6  1  0.876061  0.655070  0.618669  1
  Cd  Cd7  1  0.782105  0.782105  0.145998  1
  Cd  Cd8  1  0.830788  0.061344  0.769129  1
  Cd  Cd9  1  0.103223  0.745470  0.552345  1
  Cd  Cd10  1  0.907935  0.157121  0.079693  1
  Cd  Cd11  1  0.801632  0.443648  0.913850  1
  Cd  Cd12  1  0.394936  0.766864  0.386698  1
  Cd  Cd13  1  0.020009  0.020009  0.619000  1
  Cd  Cd14  1  0.935332  0.558342  0.222165  1
  Cd  Cd15  1  0.942060  0.314976  0.000000  1
  Cd  Cd16  1  0.792757  0.543771  0.305612  1
  Cd  Cd17  1  0.607648  0.981781  0.835392  1
  Cd  Cd18  1  0.981781  0.607648  0.835392  1
  Cd  Cd19  1  0.525984  0.883548  0.703430  1
  Cd  Cd20  1  0.543771  0.792757  0.305612  1
  Cd  Cd21  1  0.657424  0.420789  0.153043  1
  Cd  Cd22  1  0.077428  0.828242  0.920307  1
  Cd  Cd23  1  0.487145  0.238159  0.694388  1
  Cd  Cd24  1  0.148964  0.504161  0.934640  1
  Cd  Cd25  1  0.534728  0.534728  0.473073  1
  Cd  Cd26  1  0.146388  0.772256  0.164608  1
  Cd  Cd27  1  0.267746  0.504381  0.846957  1
  Cd  Cd28  1  0.905074  0.254934  0.467289  1
  Cd  Cd29  1  0.157121  0.907935  0.079693  1
  Cd  Cd30  1  0.149818  0.149818  0.714124  1
  Cd  Cd31  1  0.823693  0.179939  0.681644  1
  Cd  Cd32  1  0.356543  0.356543  0.189870  1
  Cd  Cd33  1  0.671577  0.450224  0.000000  1
  Cd  Cd34  1  0.636107  0.636107  0.854002  1
  Cd  Cd35  1  0.061655  0.061655  0.526927  1
  Cd  Cd36  1  0.380166  0.008238  0.613302  1
  Cd  Cd37  1  0.061660  0.292215  0.230871  1
  Cd  Cd38  1  0.655070  0.876061  0.618669  1
  Cd  Cd39  1  0.787645  0.437785  0.532711  1
  Cd  Cd40  1  0.894615  0.894615  0.330952  1
  Cd  Cd41  1  0.691454  0.691454  0.763781  1
  Cd  Cd42  1  0.713167  0.336177  0.777835  1
  Cd  Cd43  1  0.529955  0.529955  0.573083  1
  Cd  Cd44  1  0.498295  0.142048  0.318356  1
  Cd  Cd45  1  0.166673  0.166673  0.810130  1
  Cd  Cd46  1  0.254934  0.905074  0.467289  1
  Cd  Cd47  1  0.305864  0.305864  1.000000  1
  Cd  Cd48  1  0.437785  0.787645  0.532711  1
  Cd  Cd49  1  0.558342  0.935332  0.222165  1
  Cd  Cd50  1  0.504161  0.148964  0.934640  1
  Cd  Cd51  1  0.805938  0.805938  0.048700  1
  Cd  Cd52  1  0.745470  0.103223  0.552345  1
  Cd  Cd53  1  0.435694  0.435694  0.285876  1
  Cd  Cd54  1  0.956873  0.956873  0.426917  1
  Cd  Cd55  1  0.529798  0.887782  0.086150  1
  Cd  Cd56  1  0.428349  0.189364  0.537224  1
  Cd  Cd57  1  0.927673  0.927673  0.236219  1
  Cd  Cd58  1  0.443648  0.801632  0.913850  1
  Cd  Cd59  1  0.257392  0.036401  0.381331  1
  Cd  Cd60  1  0.883548  0.525984  0.703430  1
  Cd  Cd61  1  0.238159  0.487145  0.694388  1
  Cd  Cd62  1  0.061344  0.830788  0.769129  1
  Cd  Cd63  1  0.214324  0.569520  0.065360  1
  Cd  Cd64  1  0.142048  0.498295  0.318356  1
  Cd  Cd65  1  0.180119  0.822555  0.296570  1
  Cd  Cd66  1  0.766864  0.394936  0.386698  1
  Cd  Cd67  1  0.008238  0.380166  0.613302  1
  Cd  Cd68  1  0.569520  0.214324  0.065360  1
  Cd  Cd69  1  0.172125  0.172125  0.904974  1
  Cd  Cd70  1  0.891126  0.652141  0.462776  1
  Cd  Cd71  1  0.563663  0.563663  0.669048  1
  Cd  Cd72  1  0.179939  0.823693  0.681644  1
  Cd  Cd73  1  0.504381  0.267746  0.846957  1
  Cd  Cd74  1  0.772256  0.146388  0.164608  1
  Cd  Cd75  1  0.887782  0.529798  0.086150  1
  Cd  Cd76  1  0.420789  0.657424  0.153043  1
  Cd  Cd77  1  0.036401  0.257392  0.381331  1
  Cd  Cd78  1  0.189364  0.428349  0.537224  1
  Cd  Cd79  1  0.450224  0.671577  0.000000  1
  Cd  Cd80  1  0.822555  0.180119  0.296570  1
  Cd  Cd81  1  0.652141  0.891126  0.462776  1
  Cd  Cd82  1  0.757239  0.757239  0.951300  1
  Cd  Cd83  1  0.828242  0.077428  0.920307  1
  Cd  Cd84  1  0.314976  0.942060  0.000000  1
  Pd  Pd85  1  0.784024  0.784024  0.538702  1
  Pd  Pd86  1  0.425824  0.075543  0.148311  1
  Pd  Pd87  1  0.166565  0.166565  0.305728  1
  Pd  Pd88  1  0.047070  0.397057  0.764496  1
  Pd  Pd89  1  0.075543  0.425824  0.148311  1
  Pd  Pd90  1  0.027711  0.027711  0.000000  1
  Pd  Pd91  1  0.245322  0.245322  0.461298  1
  Pd  Pd92  1  0.660833  0.014494  0.000000  1
  Pd  Pd93  1  0.908829  0.908829  0.844339  1
  Pd  Pd94  1  0.666194  0.311775  0.617225  1
  Pd  Pd95  1  0.048969  0.694550  0.382775  1
  Pd  Pd96  1  0.860837  0.860837  0.694272  1
  Pd  Pd97  1  0.927232  0.277513  0.851689  1
  Pd  Pd98  1  0.679093  0.679093  0.384964  1
  Pd  Pd99  1  0.541432  0.541432  0.077213  1
  Pd  Pd100  1  0.282574  0.632561  0.235504  1
  Pd  Pd101  1  0.064490  0.064490  0.155661  1
  Pd  Pd102  1  0.643930  0.643930  0.229274  1
  Pd  Pd103  1  0.464219  0.464219  0.922787  1
  Pd  Pd104  1  0.694550  0.048969  0.382775  1
  Pd  Pd105  1  0.014494  0.660833  0.000000  1
  Pd  Pd106  1  0.294129  0.294129  0.615036  1
  Pd  Pd107  1  0.397057  0.047070  0.764496  1
  Pd  Pd108  1  0.277513  0.927232  0.851689  1
  Pd  Pd109  1  0.311775  0.666194  0.617225  1
  Pd  Pd110  1  0.632561  0.282574  0.235504  1
  Pd  Pd111  1  0.414656  0.414656  0.770726  1
