# generated using pymatgen
data_EuNb8O14
_symmetry_space_group_name_H-M   'P 1'
_cell_length_a   6.02347488
_cell_length_b   9.32952663
_cell_length_c   10.41730795
_cell_angle_alpha   90.00000000
_cell_angle_beta   90.00000000
_cell_angle_gamma   90.00000000
_symmetry_Int_Tables_number   1
_chemical_formula_structural   EuNb8O14
_chemical_formula_sum   'Eu2 Nb16 O28'
_cell_volume   585.41280119
_cell_formula_units_Z   2
loop_
 _symmetry_equiv_pos_site_id
 _symmetry_equiv_pos_as_xyz
  1  'x, y, z'
loop_
 _atom_site_type_symbol
 _atom_site_label
 _atom_site_symmetry_multiplicity
 _atom_site_fract_x
 _atom_site_fract_y
 _atom_site_fract_z
 _atom_site_occupancy
  O  O0  1  0.745559  0.504055  0.752824  1
  O  O1  1  0.745559  0.495945  0.247176  1
  O  O2  1  0.254441  0.004055  0.747176  1
  O  O3  1  0.254441  0.995945  0.252824  1
  O  O4  1  0.254441  0.495945  0.247176  1
  O  O5  1  0.254441  0.504055  0.752824  1
  O  O6  1  0.745559  0.995945  0.252824  1
  O  O7  1  0.745559  0.004055  0.747176  1
  O  O8  1  0.256046  0.737283  0.914529  1
  O  O9  1  0.256046  0.262717  0.085471  1
  O  O10  1  0.743954  0.237283  0.585471  1
  O  O11  1  0.743954  0.762717  0.414529  1
  O  O12  1  0.743954  0.262717  0.085471  1
  O  O13  1  0.743954  0.737283  0.914529  1
  O  O14  1  0.256046  0.762717  0.414529  1
  O  O15  1  0.256046  0.237283  0.585471  1
  O  O16  1  0.000000  0.500000  0.000000  1
  O  O17  1  0.000000  0.000000  0.500000  1
  O  O18  1  0.000000  0.235088  0.820313  1
  O  O19  1  0.000000  0.764912  0.179687  1
  O  O20  1  0.000000  0.735088  0.679687  1
  O  O21  1  0.000000  0.264912  0.320313  1
  O  O22  1  0.500000  0.234349  0.349537  1
  O  O23  1  0.500000  0.765651  0.650463  1
  O  O24  1  0.500000  0.734349  0.150463  1
  O  O25  1  0.500000  0.265651  0.849537  1
  O  O26  1  0.000000  0.000000  0.000000  1
  O  O27  1  0.000000  0.500000  0.500000  1
  Nb  Nb28  1  0.000000  0.385153  0.164094  1
  Nb  Nb29  1  0.000000  0.614847  0.835906  1
  Nb  Nb30  1  0.000000  0.885153  0.335906  1
  Nb  Nb31  1  0.000000  0.114847  0.664094  1
  Nb  Nb32  1  0.500000  0.379580  0.664009  1
  Nb  Nb33  1  0.500000  0.620420  0.335991  1
  Nb  Nb34  1  0.500000  0.879580  0.835991  1
  Nb  Nb35  1  0.500000  0.120420  0.164009  1
  Nb  Nb36  1  0.731649  0.625888  0.576840  1
  Nb  Nb37  1  0.731649  0.374112  0.423160  1
  Nb  Nb38  1  0.268351  0.125888  0.923160  1
  Nb  Nb39  1  0.268351  0.874112  0.076840  1
  Nb  Nb40  1  0.268351  0.374112  0.423160  1
  Nb  Nb41  1  0.268351  0.625888  0.576840  1
  Nb  Nb42  1  0.731649  0.874112  0.076840  1
  Nb  Nb43  1  0.731649  0.125888  0.923160  1
  Eu  Eu44  1  0.500000  0.500000  0.000000  1
  Eu  Eu45  1  0.500000  0.000000  0.500000  1
