# generated using pymatgen
data_EuNbO4
_symmetry_space_group_name_H-M   'P 1'
_cell_length_a   5.21508020
_cell_length_b   5.49363904
_cell_length_c   6.72702403
_cell_angle_alpha   112.35064889
_cell_angle_beta   110.98177927
_cell_angle_gamma   94.15012935
_symmetry_Int_Tables_number   1
_chemical_formula_structural   EuNbO4
_chemical_formula_sum   'Eu2 Nb2 O8'
_cell_volume   161.50428984
_cell_formula_units_Z   2
loop_
 _symmetry_equiv_pos_site_id
 _symmetry_equiv_pos_as_xyz
  1  'x, y, z'
loop_
 _atom_site_type_symbol
 _atom_site_label
 _atom_site_symmetry_multiplicity
 _atom_site_fract_x
 _atom_site_fract_y
 _atom_site_fract_z
 _atom_site_occupancy
  O  O0  1  0.297683  0.134850  0.080990  1
  O  O1  1  0.783307  0.446140  0.080990  1
  O  O2  1  0.702317  0.865150  0.919010  1
  O  O3  1  0.216693  0.553860  0.919010  1
  O  O4  1  0.516623  0.710448  0.437939  1
  O  O5  1  0.921316  0.227491  0.437939  1
  O  O6  1  0.483377  0.289552  0.562061  1
  O  O7  1  0.078684  0.772509  0.562061  1
  Nb  Nb8  1  0.356787  0.606787  0.713574  1
  Nb  Nb9  1  0.643213  0.393213  0.286426  1
  Eu  Eu10  1  0.877888  0.127888  0.755776  1
  Eu  Eu11  1  0.122112  0.872112  0.244224  1
