# generated using pymatgen
data_EuRh2
_symmetry_space_group_name_H-M   'P 1'
_cell_length_a   5.40604037
_cell_length_b   5.40585589
_cell_length_c   5.40705119
_cell_angle_alpha   60.01858997
_cell_angle_beta   60.01507229
_cell_angle_gamma   59.99683392
_symmetry_Int_Tables_number   1
_chemical_formula_structural   EuRh2
_chemical_formula_sum   'Eu2 Rh4'
_cell_volume   111.76074069
_cell_formula_units_Z   2
loop_
 _symmetry_equiv_pos_site_id
 _symmetry_equiv_pos_as_xyz
  1  'x, y, z'
loop_
 _atom_site_type_symbol
 _atom_site_label
 _atom_site_symmetry_multiplicity
 _atom_site_fract_x
 _atom_site_fract_y
 _atom_site_fract_z
 _atom_site_occupancy
  Eu  Eu0  1  0.124982  0.124991  0.124969  1
  Eu  Eu1  1  0.874995  0.875013  0.875026  1
  Rh  Rh2  1  0.500029  0.499989  0.999992  1
  Rh  Rh3  1  0.499995  0.000001  0.499980  1
  Rh  Rh4  1  0.499993  0.499998  0.500014  1
  Rh  Rh5  1  0.000006  0.500008  0.500019  1
