# generated using pymatgen
data_EuTaO4
_symmetry_space_group_name_H-M   'P 1'
_cell_length_a   5.14867665
_cell_length_b   5.53612450
_cell_length_c   6.67424311
_cell_angle_alpha   112.03137160
_cell_angle_beta   110.06627270
_cell_angle_gamma   95.89633244
_symmetry_Int_Tables_number   1
_chemical_formula_structural   EuTaO4
_chemical_formula_sum   'Eu2 Ta2 O8'
_cell_volume   159.68558916
_cell_formula_units_Z   2
loop_
 _symmetry_equiv_pos_site_id
 _symmetry_equiv_pos_as_xyz
  1  'x, y, z'
loop_
 _atom_site_type_symbol
 _atom_site_label
 _atom_site_symmetry_multiplicity
 _atom_site_fract_x
 _atom_site_fract_y
 _atom_site_fract_z
 _atom_site_occupancy
  O  O0  1  0.001824  0.796064  0.060470  1
  O  O1  1  0.558646  0.264406  0.060470  1
  O  O2  1  0.998176  0.203936  0.939530  1
  O  O3  1  0.441354  0.735594  0.939530  1
  O  O4  1  0.196929  0.359184  0.414789  1
  O  O5  1  0.717860  0.055605  0.414789  1
  O  O6  1  0.803071  0.640816  0.585211  1
  O  O7  1  0.282140  0.944395  0.585211  1
  Eu  Eu8  1  0.383354  0.633354  0.266707  1
  Eu  Eu9  1  0.616646  0.366646  0.733293  1
  Ta  Ta10  1  0.847456  0.097456  0.194913  1
  Ta  Ta11  1  0.152544  0.902544  0.805087  1
