# generated using pymatgen
data_EuTaO4
_symmetry_space_group_name_H-M   'P 1'
_cell_length_a   5.25857742
_cell_length_b   5.42987504
_cell_length_c   5.68774135
_cell_angle_alpha   90.00000000
_cell_angle_beta   90.00000000
_cell_angle_gamma   96.74520992
_symmetry_Int_Tables_number   1
_chemical_formula_structural   EuTaO4
_chemical_formula_sum   'Eu2 Ta2 O8'
_cell_volume   161.28033984
_cell_formula_units_Z   2
loop_
 _symmetry_equiv_pos_site_id
 _symmetry_equiv_pos_as_xyz
  1  'x, y, z'
loop_
 _atom_site_type_symbol
 _atom_site_label
 _atom_site_symmetry_multiplicity
 _atom_site_fract_x
 _atom_site_fract_y
 _atom_site_fract_z
 _atom_site_occupancy
  O  O0  1  0.719637  0.993189  0.569710  1
  O  O1  1  0.280363  0.506811  0.569710  1
  O  O2  1  0.280363  0.006811  0.430290  1
  O  O3  1  0.719637  0.493189  0.430290  1
  O  O4  1  0.253215  0.612745  0.099556  1
  O  O5  1  0.746785  0.887255  0.099556  1
  O  O6  1  0.746785  0.387255  0.900444  1
  O  O7  1  0.253215  0.112745  0.900444  1
  Eu  Eu8  1  0.000000  0.750000  0.778051  1
  Eu  Eu9  1  0.000000  0.250000  0.221949  1
  Ta  Ta10  1  0.500000  0.250000  0.679170  1
  Ta  Ta11  1  0.500000  0.750000  0.320830  1
