# generated using pymatgen
data_Eu2VO4
_symmetry_space_group_name_H-M   'P 1'
_cell_length_a   3.86641207
_cell_length_b   3.86641207
_cell_length_c   6.84094625
_cell_angle_alpha   106.41504611
_cell_angle_beta   106.41504612
_cell_angle_gamma   89.99999991
_symmetry_Int_Tables_number   1
_chemical_formula_structural   Eu2VO4
_chemical_formula_sum   'Eu2 V1 O4'
_cell_volume   93.74432326
_cell_formula_units_Z   1
loop_
 _symmetry_equiv_pos_site_id
 _symmetry_equiv_pos_as_xyz
  1  'x, y, z'
loop_
 _atom_site_type_symbol
 _atom_site_label
 _atom_site_symmetry_multiplicity
 _atom_site_fract_x
 _atom_site_fract_y
 _atom_site_fract_z
 _atom_site_occupancy
  O  O0  1  0.831915  0.831916  0.663831  1
  O  O1  1  0.168084  0.168085  0.336168  1
  O  O2  1  0.000001  0.499999  0.000000  1
  O  O3  1  0.500001  1.000000  0.000001  1
  V  V4  1  0.000000  0.000000  0.000000  1
  Eu  Eu5  1  0.645416  0.645415  0.290831  1
  Eu  Eu6  1  0.354584  0.354585  0.709169  1
