# generated using pymatgen
data_EuVO4
_symmetry_space_group_name_H-M   'P 1'
_cell_length_a   6.15390331
_cell_length_b   6.15390331
_cell_length_c   6.15390331
_cell_angle_alpha   106.13456280
_cell_angle_beta   106.13456275
_cell_angle_gamma   116.37291102
_symmetry_Int_Tables_number   1
_chemical_formula_structural   EuVO4
_chemical_formula_sum   'Eu2 V2 O8'
_cell_volume   177.42816927
_cell_formula_units_Z   2
loop_
 _symmetry_equiv_pos_site_id
 _symmetry_equiv_pos_as_xyz
  1  'x, y, z'
loop_
 _atom_site_type_symbol
 _atom_site_label
 _atom_site_symmetry_multiplicity
 _atom_site_fract_x
 _atom_site_fract_y
 _atom_site_fract_z
 _atom_site_occupancy
  O  O0  1  0.795680  0.727350  0.431670  1
  O  O1  1  0.364010  0.795680  0.568330  1
  O  O2  1  0.727350  0.795680  0.931670  1
  O  O3  1  0.795680  0.364010  0.068330  1
  O  O4  1  0.635990  0.204320  0.431670  1
  O  O5  1  0.204320  0.272650  0.568330  1
  O  O6  1  0.204320  0.635990  0.931670  1
  O  O7  1  0.272650  0.204320  0.068330  1
  V  V8  1  0.375000  0.625000  0.750000  1
  V  V9  1  0.625000  0.375000  0.250000  1
  Eu  Eu10  1  0.125000  0.875000  0.250000  1
  Eu  Eu11  1  0.875000  0.125000  0.750000  1
