# generated using pymatgen
data_EuZn2
_symmetry_space_group_name_H-M   'P 1'
_cell_length_a   4.67290795
_cell_length_b   5.85623438
_cell_length_c   5.85623438
_cell_angle_alpha   79.85405196
_cell_angle_beta   66.48627980
_cell_angle_gamma   66.48627985
_symmetry_Int_Tables_number   1
_chemical_formula_structural   EuZn2
_chemical_formula_sum   'Eu2 Zn4'
_cell_volume   134.72266122
_cell_formula_units_Z   2
loop_
 _symmetry_equiv_pos_site_id
 _symmetry_equiv_pos_as_xyz
  1  'x, y, z'
loop_
 _atom_site_type_symbol
 _atom_site_label
 _atom_site_symmetry_multiplicity
 _atom_site_fract_x
 _atom_site_fract_y
 _atom_site_fract_z
 _atom_site_occupancy
  Zn  Zn0  1  0.835744  0.725967  0.602545  1
  Zn  Zn1  1  0.164256  0.274033  0.397455  1
  Zn  Zn2  1  0.835744  0.102545  0.225967  1
  Zn  Zn3  1  0.164256  0.897455  0.774033  1
  Eu  Eu4  1  0.548879  0.701121  0.201121  1
  Eu  Eu5  1  0.451121  0.298879  0.798879  1
