# generated using pymatgen
data_Eu3(B3Rh4)2
_symmetry_space_group_name_H-M   'P 1'
_cell_length_a   5.56422866
_cell_length_b   5.65754994
_cell_length_c   9.03364345
_cell_angle_alpha   81.28924603
_cell_angle_beta   72.06291197
_cell_angle_gamma   60.54416455
_symmetry_Int_Tables_number   1
_chemical_formula_structural   Eu3(B3Rh4)2
_chemical_formula_sum   'Eu3 B6 Rh8'
_cell_volume   235.58264531
_cell_formula_units_Z   1
loop_
 _symmetry_equiv_pos_site_id
 _symmetry_equiv_pos_as_xyz
  1  'x, y, z'
loop_
 _atom_site_type_symbol
 _atom_site_label
 _atom_site_symmetry_multiplicity
 _atom_site_fract_x
 _atom_site_fract_y
 _atom_site_fract_z
 _atom_site_occupancy
  Eu  Eu0  1  0.683135  1.000000  0.633731  1
  Eu  Eu1  1  0.500000  0.000000  0.000000  1
  Eu  Eu2  1  0.316865  0.000000  0.366269  1
  B  B3  1  0.165026  0.669948  1.000000  1
  B  B4  1  0.331900  0.677815  0.658386  1
  B  B5  1  0.009715  0.322185  0.658386  1
  B  B6  1  0.990285  0.677815  0.341614  1
  B  B7  1  0.668100  0.322185  0.341614  1
  B  B8  1  0.834974  0.330052  0.000000  1
  Rh  Rh9  1  0.084734  0.500000  0.830531  1
  Rh  Rh10  1  0.915266  0.500000  0.169469  1
  Rh  Rh11  1  0.250000  0.500000  0.500000  1
  Rh  Rh12  1  0.912707  0.000000  0.174586  1
  Rh  Rh13  1  0.087293  1.000000  0.825414  1
  Rh  Rh14  1  0.584734  0.500000  0.830531  1
  Rh  Rh15  1  0.415266  0.500000  0.169469  1
  Rh  Rh16  1  0.750000  0.500000  0.500000  1
