# generated using pymatgen
data_EuAg
_symmetry_space_group_name_H-M   'P 1'
_cell_length_a   4.77674919
_cell_length_b   6.23964503
_cell_length_c   7.99767097
_cell_angle_alpha   90.00000000
_cell_angle_beta   90.00000000
_cell_angle_gamma   90.00000000
_symmetry_Int_Tables_number   1
_chemical_formula_structural   EuAg
_chemical_formula_sum   'Eu4 Ag4'
_cell_volume   238.37233749
_cell_formula_units_Z   4
loop_
 _symmetry_equiv_pos_site_id
 _symmetry_equiv_pos_as_xyz
  1  'x, y, z'
loop_
 _atom_site_type_symbol
 _atom_site_label
 _atom_site_symmetry_multiplicity
 _atom_site_fract_x
 _atom_site_fract_y
 _atom_site_fract_z
 _atom_site_occupancy
  Eu  Eu0  1  0.750000  0.867219  0.821415  1
  Eu  Eu1  1  0.250000  0.367219  0.678585  1
  Eu  Eu2  1  0.750000  0.632781  0.321415  1
  Eu  Eu3  1  0.250000  0.132781  0.178585  1
  Ag  Ag4  1  0.250000  0.625625  0.041562  1
  Ag  Ag5  1  0.750000  0.125625  0.458438  1
  Ag  Ag6  1  0.750000  0.374375  0.958438  1
  Ag  Ag7  1  0.250000  0.874375  0.541562  1
