# generated using pymatgen
data_Eu2Ir2O7
_symmetry_space_group_name_H-M   'P 1'
_cell_length_a   7.40268603
_cell_length_b   7.40239347
_cell_length_c   7.40028848
_cell_angle_alpha   59.98039836
_cell_angle_beta   59.98216526
_cell_angle_gamma   59.98956723
_symmetry_Int_Tables_number   1
_chemical_formula_structural   Eu2Ir2O7
_chemical_formula_sum   'Eu4 Ir4 O14'
_cell_volume   286.64078378
_cell_formula_units_Z   2
loop_
 _symmetry_equiv_pos_site_id
 _symmetry_equiv_pos_as_xyz
  1  'x, y, z'
loop_
 _atom_site_type_symbol
 _atom_site_label
 _atom_site_symmetry_multiplicity
 _atom_site_fract_x
 _atom_site_fract_y
 _atom_site_fract_z
 _atom_site_occupancy
  Eu  Eu0  1  0.499999  0.499999  0.500001  1
  Eu  Eu1  1  0.500001  0.499998  -0.000001  1
  Eu  Eu2  1  0.000000  0.500000  0.499999  1
  Eu  Eu3  1  0.499999  -0.000002  0.500002  1
  Ir  Ir4  1  -0.000000  0.000001  0.500000  1
  Ir  Ir5  1  0.000000  0.000001  0.999999  1
  Ir  Ir6  1  -0.000000  0.500000  0.000000  1
  Ir  Ir7  1  0.500000  0.000000  -0.000000  1
  O  O8  1  0.375198  0.375035  0.374959  1
  O  O9  1  0.672086  0.077922  0.077726  1
  O  O10  1  0.327915  0.922079  0.922274  1
  O  O11  1  0.077872  0.672129  0.077728  1
  O  O12  1  0.672004  0.077926  0.672285  1
  O  O13  1  0.327845  0.327806  0.922201  1
  O  O14  1  0.922193  0.922145  0.327786  1
  O  O15  1  0.077807  0.077856  0.672214  1
  O  O16  1  0.327996  0.922074  0.327715  1
  O  O17  1  0.672154  0.672195  0.077799  1
  O  O18  1  0.624802  0.624963  0.625041  1
  O  O19  1  0.922122  0.327953  0.327713  1
  O  O20  1  0.922128  0.327872  0.922272  1
  O  O21  1  0.077878  0.672048  0.672287  1
