# generated using pymatgen
data_EuMnO3
_symmetry_space_group_name_H-M   'P 1'
_cell_length_a   5.47936925
_cell_length_b   5.52682023
_cell_length_c   7.79094505
_cell_angle_alpha   90.00000000
_cell_angle_beta   90.00000000
_cell_angle_gamma   90.00000000
_symmetry_Int_Tables_number   1
_chemical_formula_structural   EuMnO3
_chemical_formula_sum   'Eu4 Mn4 O12'
_cell_volume   235.93699731
_cell_formula_units_Z   4
loop_
 _symmetry_equiv_pos_site_id
 _symmetry_equiv_pos_as_xyz
  1  'x, y, z'
loop_
 _atom_site_type_symbol
 _atom_site_label
 _atom_site_symmetry_multiplicity
 _atom_site_fract_x
 _atom_site_fract_y
 _atom_site_fract_z
 _atom_site_occupancy
  O  O0  1  0.709633  0.290607  0.462284  1
  O  O1  1  0.209633  0.209393  0.537716  1
  O  O2  1  0.790367  0.790607  0.037716  1
  O  O3  1  0.290367  0.709393  0.962284  1
  O  O4  1  0.290367  0.709393  0.537716  1
  O  O5  1  0.790367  0.790607  0.462284  1
  O  O6  1  0.209633  0.209393  0.962284  1
  O  O7  1  0.709633  0.290607  0.037716  1
  O  O8  1  0.071818  0.483764  0.250000  1
  O  O9  1  0.571818  0.016236  0.750000  1
  O  O10  1  0.428182  0.983764  0.250000  1
  O  O11  1  0.928182  0.516236  0.750000  1
  Mn  Mn12  1  0.500000  0.000000  0.500000  1
  Mn  Mn13  1  0.000000  0.500000  0.500000  1
  Mn  Mn14  1  0.000000  0.500000  0.000000  1
  Mn  Mn15  1  0.500000  0.000000  0.000000  1
  Eu  Eu16  1  0.006336  0.962415  0.750000  1
  Eu  Eu17  1  0.506336  0.537585  0.250000  1
  Eu  Eu18  1  0.493664  0.462415  0.750000  1
  Eu  Eu19  1  0.993664  0.037585  0.250000  1
