# generated using pymatgen
data_Eu2Mn2O7
_symmetry_space_group_name_H-M   'P 1'
_cell_length_a   7.18218238
_cell_length_b   7.19286386
_cell_length_c   7.18043310
_cell_angle_alpha   59.97383822
_cell_angle_beta   60.03782505
_cell_angle_gamma   59.98143243
_symmetry_Int_Tables_number   1
_chemical_formula_structural   Eu2Mn2O7
_chemical_formula_sum   'Eu4 Mn4 O14'
_cell_volume   262.28347356
_cell_formula_units_Z   2
loop_
 _symmetry_equiv_pos_site_id
 _symmetry_equiv_pos_as_xyz
  1  'x, y, z'
loop_
 _atom_site_type_symbol
 _atom_site_label
 _atom_site_symmetry_multiplicity
 _atom_site_fract_x
 _atom_site_fract_y
 _atom_site_fract_z
 _atom_site_occupancy
  Eu  Eu0  1  0.499998  -0.000005  0.499991  1
  Eu  Eu1  1  0.500007  0.500009  0.999982  1
  Eu  Eu2  1  -0.000016  0.499990  0.500013  1
  Eu  Eu3  1  0.500006  0.500003  0.499998  1
  Mn  Mn4  1  -0.000029  0.000008  0.000014  1
  Mn  Mn5  1  0.500055  -0.000007  0.999990  1
  Mn  Mn6  1  0.000008  0.999973  0.500025  1
  Mn  Mn7  1  -0.000010  0.500000  -0.000012  1
  O  O8  1  0.674159  0.075888  0.076153  1
  O  O9  1  0.923729  0.326402  0.325780  1
  O  O10  1  0.076231  0.075893  0.674201  1
  O  O11  1  0.674171  0.673731  0.076183  1
  O  O12  1  0.375027  0.375033  0.375018  1
  O  O13  1  0.674136  0.075773  0.674342  1
  O  O14  1  0.076631  0.673399  0.076530  1
  O  O15  1  0.325842  0.924239  0.325658  1
  O  O16  1  0.923770  0.924112  0.325797  1
  O  O17  1  0.325820  0.326270  0.923814  1
  O  O18  1  0.624976  0.624970  0.624973  1
  O  O19  1  0.923374  0.326605  0.923484  1
  O  O20  1  0.076272  0.673597  0.674224  1
  O  O21  1  0.325842  0.924117  0.923844  1
