# generated using pymatgen
data_Eu2(MoO4)3
_symmetry_space_group_name_H-M   'P 1'
_cell_length_a   7.06579986
_cell_length_b   7.06579960
_cell_length_c   11.65353839
_cell_angle_alpha   100.36346493
_cell_angle_beta   100.36346465
_cell_angle_gamma   112.56279428
_symmetry_Int_Tables_number   1
_chemical_formula_structural   Eu2(MoO4)3
_chemical_formula_sum   'Eu4 Mo6 O24'
_cell_volume   508.28327880
_cell_formula_units_Z   2
loop_
 _symmetry_equiv_pos_site_id
 _symmetry_equiv_pos_as_xyz
  1  'x, y, z'
loop_
 _atom_site_type_symbol
 _atom_site_label
 _atom_site_symmetry_multiplicity
 _atom_site_fract_x
 _atom_site_fract_y
 _atom_site_fract_z
 _atom_site_occupancy
  Eu  Eu0  1  0.804641  0.047891  0.591844  1
  Eu  Eu1  1  0.452109  0.695359  0.908156  1
  Eu  Eu2  1  0.195359  0.952109  0.408156  1
  Eu  Eu3  1  0.547891  0.304641  0.091844  1
  Mo  Mo4  1  0.621432  0.878568  0.250000  1
  Mo  Mo5  1  0.378568  0.121432  0.750000  1
  Mo  Mo6  1  0.302016  0.515212  0.552525  1
  Mo  Mo7  1  0.984788  0.197984  0.947475  1
  Mo  Mo8  1  0.697984  0.484788  0.447475  1
  Mo  Mo9  1  0.015212  0.802016  0.052525  1
  O  O10  1  0.528697  0.947736  0.113977  1
  O  O11  1  0.552264  0.971303  0.386023  1
  O  O12  1  0.471303  0.052264  0.886023  1
  O  O13  1  0.447736  0.028697  0.613977  1
  O  O14  1  0.177834  0.608363  0.445860  1
  O  O15  1  0.891637  0.322166  0.054140  1
  O  O16  1  0.822166  0.391637  0.554140  1
  O  O17  1  0.108363  0.677834  0.945860  1
  O  O18  1  0.859229  0.211926  0.803022  1
  O  O19  1  0.288074  0.640771  0.696978  1
  O  O20  1  0.140771  0.788074  0.196978  1
  O  O21  1  0.711926  0.359229  0.303022  1
  O  O22  1  0.400627  0.327212  0.421823  1
  O  O23  1  0.172788  0.099373  0.078177  1
  O  O24  1  0.599373  0.672788  0.578177  1
  O  O25  1  0.827212  0.900627  0.921823  1
  O  O26  1  0.095933  0.012045  0.719315  1
  O  O27  1  0.487955  0.404067  0.780685  1
  O  O28  1  0.904067  0.987955  0.280685  1
  O  O29  1  0.512045  0.595933  0.219315  1
  O  O30  1  0.728168  0.633967  0.041389  1
  O  O31  1  0.866033  0.771832  0.458611  1
  O  O32  1  0.271832  0.366033  0.958611  1
  O  O33  1  0.133967  0.228168  0.541389  1
