# generated using pymatgen
data_Ag2Hg3
_symmetry_space_group_name_H-M   'P 1'
_cell_length_a   8.95583782
_cell_length_b   8.93220587
_cell_length_c   14.60412779
_cell_angle_alpha   90.55386685
_cell_angle_beta   90.35920860
_cell_angle_gamma   109.79762549
_symmetry_Int_Tables_number   1
_chemical_formula_structural   Ag2Hg3
_chemical_formula_sum   'Ag20 Hg30'
_cell_volume   1099.10454969
_cell_formula_units_Z   10
loop_
 _symmetry_equiv_pos_site_id
 _symmetry_equiv_pos_as_xyz
  1  'x, y, z'
loop_
 _atom_site_type_symbol
 _atom_site_label
 _atom_site_symmetry_multiplicity
 _atom_site_fract_x
 _atom_site_fract_y
 _atom_site_fract_z
 _atom_site_occupancy
  Ag  Ag0  1  0.331303  0.995995  0.000174  1
  Ag  Ag1  1  0.818516  0.186615  0.174106  1
  Ag  Ag2  1  0.359042  0.354183  0.997784  1
  Ag  Ag3  1  0.641838  0.642810  0.000579  1
  Ag  Ag4  1  0.674127  0.317039  0.324395  1
  Ag  Ag5  1  0.008045  0.336276  0.998209  1
  Ag  Ag6  1  0.830565  0.828559  0.165843  1
  Ag  Ag7  1  0.836902  0.503836  0.495853  1
  Ag  Ag8  1  0.330580  0.333829  0.329358  1
  Ag  Ag9  1  0.145648  0.144820  0.499502  1
  Ag  Ag10  1  0.855596  0.858668  0.501442  1
  Ag  Ag11  1  0.178916  0.820707  0.177298  1
  Ag  Ag12  1  0.321654  0.672112  0.321700  1
  Ag  Ag13  1  0.693279  0.332550  0.679078  1
  Ag  Ag14  1  0.817169  0.174856  0.825662  1
  Ag  Ag15  1  0.497650  0.834842  0.498221  1
  Ag  Ag16  1  0.328709  0.334592  0.667248  1
  Ag  Ag17  1  0.834495  0.833198  0.829579  1
  Ag  Ag18  1  0.321981  0.681043  0.679454  1
  Ag  Ag19  1  0.175452  0.820831  0.823614  1
  Hg  Hg20  1  0.769125  0.999824  0.000777  1
  Hg  Hg21  1  0.479085  0.208337  0.160989  1
  Hg  Hg22  1  0.119837  0.121522  0.119393  1
  Hg  Hg23  1  0.926211  0.626667  0.296086  1
  Hg  Hg24  1  0.388317  0.017928  0.346233  1
  Hg  Hg25  1  0.524558  0.551238  0.183549  1
  Hg  Hg26  1  0.281889  0.647714  0.016606  1
  Hg  Hg27  1  0.811890  0.174051  0.534299  1
  Hg  Hg28  1  0.050260  0.001953  0.316653  1
  Hg  Hg29  1  0.121922  0.457911  0.182011  1
  Hg  Hg30  1  0.520021  0.885570  0.154611  1
  Hg  Hg31  1  0.502637  0.268426  0.502786  1
  Hg  Hg32  1  0.985238  0.743645  0.006991  1
  Hg  Hg33  1  0.612317  0.616088  0.386141  1
  Hg  Hg34  1  0.711153  0.979454  0.340214  1
  Hg  Hg35  1  0.320736  0.999429  0.632692  1
  Hg  Hg36  1  0.999073  0.326315  0.366753  1
  Hg  Hg37  1  0.979104  0.683128  0.661541  1
  Hg  Hg38  1  0.250119  0.493926  0.509816  1
  Hg  Hg39  1  0.619168  0.619184  0.617232  1
  Hg  Hg40  1  0.460765  0.147593  0.819908  1
  Hg  Hg41  1  0.886957  0.516418  0.841404  1
  Hg  Hg42  1  0.012761  0.076159  0.683781  1
  Hg  Hg43  1  0.547199  0.508127  0.817029  1
  Hg  Hg44  1  0.145416  0.778207  0.473591  1
  Hg  Hg45  1  0.677359  0.314839  0.995431  1
  Hg  Hg46  1  0.641570  0.951386  0.682536  1
  Hg  Hg47  1  0.116625  0.110033  0.884811  1
  Hg  Hg48  1  0.189943  0.454451  0.822520  1
  Hg  Hg49  1  0.498255  0.825200  0.867611  1
