# generated using pymatgen
data_Ce10Y22O53
_symmetry_space_group_name_H-M   'P 1'
_cell_length_a   9.37500838
_cell_length_b   9.38608497
_cell_length_c   18.67866865
_cell_angle_alpha   109.48275360
_cell_angle_beta   109.26262748
_cell_angle_gamma   109.57044948
_symmetry_Int_Tables_number   1
_chemical_formula_structural   Ce10Y22O53
_chemical_formula_sum   'Ce10 Y22 O53'
_cell_volume   1266.77920750
_cell_formula_units_Z   1
loop_
 _symmetry_equiv_pos_site_id
 _symmetry_equiv_pos_as_xyz
  1  'x, y, z'
loop_
 _atom_site_type_symbol
 _atom_site_label
 _atom_site_symmetry_multiplicity
 _atom_site_fract_x
 _atom_site_fract_y
 _atom_site_fract_z
 _atom_site_occupancy
  Ce  Ce0  1  0.005817  0.743350  0.886070  1
  Ce  Ce1  1  0.485847  0.267126  0.868460  1
  Ce  Ce2  1  0.749121  0.750445  0.512502  1
  Ce  Ce3  1  0.494932  0.996333  0.511638  1
  Ce  Ce4  1  0.780953  0.008786  0.873755  1
  Ce  Ce5  1  0.751447  0.751948  0.005317  1
  Ce  Ce6  1  0.980100  0.252181  0.611552  1
  Ce  Ce7  1  0.492467  0.996710  0.013457  1
  Ce  Ce8  1  0.785681  0.029375  0.372430  1
  Ce  Ce9  1  0.972830  0.251396  0.113628  1
  O  O10  1  0.010411  0.966022  0.862008  1
  O  O11  1  0.015217  0.486086  0.879298  1
  O  O12  1  0.027857  0.257992  0.002324  1
  O  O13  1  0.249852  0.974978  0.756446  1
  O  O14  1  0.991610  0.959184  0.363539  1
  O  O15  1  0.256097  0.770009  0.869227  1
  O  O16  1  0.256461  0.011816  0.514180  1
  O  O17  1  0.231637  0.463073  0.734349  1
  O  O18  1  0.236177  0.275675  0.872387  1
  O  O19  1  0.243113  0.713745  0.608960  1
  O  O20  1  0.031981  0.267927  0.501227  1
  O  O21  1  0.019935  0.485407  0.377797  1
  O  O22  1  0.511476  0.522969  0.876828  1
  O  O23  1  0.491056  0.214887  0.984251  1
  O  O24  1  0.248957  0.969258  0.256571  1
  O  O25  1  0.518943  0.780983  0.764719  1
  O  O26  1  0.263967  0.769238  0.369193  1
  O  O27  1  0.474061  0.256013  0.740996  1
  O  O28  1  0.249627  0.010852  0.015049  1
  O  O29  1  0.229405  0.457661  0.233222  1
  O  O30  1  0.460213  0.473933  0.613397  1
  O  O31  1  0.240546  0.275689  0.372454  1
  O  O32  1  0.489265  0.735251  0.507280  1
  O  O33  1  0.771780  0.768782  0.885903  1
  O  O34  1  0.254348  0.707186  0.112002  1
  O  O35  1  0.713534  0.224813  0.873579  1
  O  O36  1  0.502137  0.998782  0.632978  1
  O  O37  1  0.503106  0.998548  0.133923  1
  O  O38  1  0.493904  0.211057  0.483769  1
  O  O39  1  0.776629  0.750033  0.640477  1
  O  O40  1  0.535258  0.550464  0.377078  1
  O  O41  1  0.772862  0.525323  0.754493  1
  O  O42  1  0.723433  0.011082  0.989080  1
  O  O43  1  0.536184  0.778475  0.269957  1
  O  O44  1  0.466571  0.251457  0.237975  1
  O  O45  1  0.758717  0.236230  0.632768  1
  O  O46  1  0.789183  0.038613  0.758077  1
  O  O47  1  0.458213  0.474128  0.110263  1
  O  O48  1  0.491502  0.740104  0.006276  1
  O  O49  1  0.726542  0.499587  0.496928  1
  O  O50  1  0.715942  0.230654  0.373431  1
  O  O51  1  0.978201  0.503367  0.626082  1
  O  O52  1  0.974267  0.747785  0.494568  1
  O  O53  1  0.777637  0.750673  0.139032  1
  O  O54  1  0.766423  0.541585  0.261030  1
  O  O55  1  0.734680  0.993597  0.483011  1
  O  O56  1  0.016306  0.044427  0.635214  1
  O  O57  1  0.754090  0.248427  0.136155  1
  O  O58  1  0.794471  0.047856  0.257513  1
  O  O59  1  0.727057  0.496053  0.994819  1
  O  O60  1  0.981326  0.508320  0.129137  1
  O  O61  1  0.993132  0.743962  0.006495  1
  O  O62  1  0.010166  0.041273  0.133590  1
  Y  Y63  1  0.248215  0.970968  0.626885  1
  Y  Y64  1  0.268040  0.527529  0.872376  1
  Y  Y65  1  0.025613  0.741007  0.384724  1
  Y  Y66  1  0.250291  0.224081  0.985054  1
  Y  Y67  1  0.245698  0.719851  0.733648  1
  Y  Y68  1  0.252040  0.968226  0.131220  1
  Y  Y69  1  0.975375  0.493312  0.999369  1
  Y  Y70  1  0.526075  0.526543  0.757168  1
  Y  Y71  1  0.255028  0.721394  0.235692  1
  Y  Y72  1  0.272221  0.525403  0.372278  1
  Y  Y73  1  0.254234  0.224297  0.485463  1
  Y  Y74  1  0.526667  0.769764  0.640177  1
  Y  Y75  1  0.485224  0.273243  0.367957  1
  Y  Y76  1  0.728619  0.255921  0.754320  1
  Y  Y77  1  0.713432  0.470582  0.612339  1
  Y  Y78  1  0.012422  0.006813  0.750520  1
  Y  Y79  1  0.503668  0.502826  0.244257  1
  Y  Y80  1  0.534452  0.771480  0.140415  1
  Y  Y81  1  0.728473  0.266079  0.256076  1
  Y  Y82  1  0.716109  0.477772  0.114895  1
  Y  Y83  1  0.971040  0.499597  0.496279  1
  Y  Y84  1  0.014204  0.002573  0.251073  1
