# generated using pymatgen
data_EuScO3
_symmetry_space_group_name_H-M   'P 1'
_cell_length_a   5.60066767
_cell_length_b   5.81582535
_cell_length_c   8.02309527
_cell_angle_alpha   90.00000000
_cell_angle_beta   90.00000000
_cell_angle_gamma   90.00000000
_symmetry_Int_Tables_number   1
_chemical_formula_structural   EuScO3
_chemical_formula_sum   'Eu4 Sc4 O12'
_cell_volume   261.33231089
_cell_formula_units_Z   4
loop_
 _symmetry_equiv_pos_site_id
 _symmetry_equiv_pos_as_xyz
  1  'x, y, z'
loop_
 _atom_site_type_symbol
 _atom_site_label
 _atom_site_symmetry_multiplicity
 _atom_site_fract_x
 _atom_site_fract_y
 _atom_site_fract_z
 _atom_site_occupancy
  O  O0  1  0.696355  0.302053  0.559640  1
  O  O1  1  0.196355  0.197947  0.440360  1
  O  O2  1  0.803645  0.802053  0.940360  1
  O  O3  1  0.303645  0.697947  0.059640  1
  O  O4  1  0.303645  0.697947  0.440360  1
  O  O5  1  0.803645  0.802053  0.559640  1
  O  O6  1  0.196355  0.197947  0.059640  1
  O  O7  1  0.696355  0.302053  0.940360  1
  O  O8  1  0.886501  0.546309  0.250000  1
  O  O9  1  0.386501  0.953691  0.750000  1
  O  O10  1  0.613499  0.046309  0.250000  1
  O  O11  1  0.113499  0.453691  0.750000  1
  Sc  Sc12  1  0.000000  0.500000  0.500000  1
  Sc  Sc13  1  0.500000  0.000000  0.500000  1
  Sc  Sc14  1  0.500000  0.000000  0.000000  1
  Sc  Sc15  1  0.000000  0.500000  0.000000  1
  Eu  Eu16  1  0.985515  0.055523  0.750000  1
  Eu  Eu17  1  0.485515  0.444477  0.250000  1
  Eu  Eu18  1  0.514485  0.555523  0.750000  1
  Eu  Eu19  1  0.014485  0.944477  0.250000  1
