# generated using pymatgen
data_EuTa2O6
_symmetry_space_group_name_H-M   'P 1'
_cell_length_a   5.56073212
_cell_length_b   7.70077061
_cell_length_c   11.21738274
_cell_angle_alpha   90.00000000
_cell_angle_beta   90.00000000
_cell_angle_gamma   90.00000000
_symmetry_Int_Tables_number   1
_chemical_formula_structural   EuTa2O6
_chemical_formula_sum   'Eu4 Ta8 O24'
_cell_volume   480.34989412
_cell_formula_units_Z   4
loop_
 _symmetry_equiv_pos_site_id
 _symmetry_equiv_pos_as_xyz
  1  'x, y, z'
loop_
 _atom_site_type_symbol
 _atom_site_label
 _atom_site_symmetry_multiplicity
 _atom_site_fract_x
 _atom_site_fract_y
 _atom_site_fract_z
 _atom_site_occupancy
  Eu  Eu0  1  0.456280  0.750000  0.957777  1
  Eu  Eu1  1  0.956280  0.250000  0.542223  1
  Eu  Eu2  1  0.543720  0.250000  0.042223  1
  Eu  Eu3  1  0.043720  0.750000  0.457777  1
  Ta  Ta4  1  0.960292  0.003748  0.858670  1
  Ta  Ta5  1  0.460292  0.996252  0.641330  1
  Ta  Ta6  1  0.039708  0.503748  0.141330  1
  Ta  Ta7  1  0.539708  0.496252  0.358670  1
  Ta  Ta8  1  0.039708  0.996252  0.141330  1
  Ta  Ta9  1  0.539708  0.003748  0.358670  1
  Ta  Ta10  1  0.960292  0.496252  0.858670  1
  Ta  Ta11  1  0.460292  0.503748  0.641330  1
  O  O12  1  0.776257  0.963290  0.023529  1
  O  O13  1  0.276257  0.036710  0.476471  1
  O  O14  1  0.223743  0.463290  0.976471  1
  O  O15  1  0.723743  0.536710  0.523529  1
  O  O16  1  0.223743  0.036710  0.976471  1
  O  O17  1  0.723743  0.963290  0.523529  1
  O  O18  1  0.776257  0.536710  0.023529  1
  O  O19  1  0.276257  0.463290  0.476471  1
  O  O20  1  0.634817  0.948788  0.786978  1
  O  O21  1  0.134817  0.051212  0.713022  1
  O  O22  1  0.365183  0.448788  0.213022  1
  O  O23  1  0.865183  0.551212  0.286978  1
  O  O24  1  0.365183  0.051212  0.213022  1
  O  O25  1  0.865183  0.948788  0.286978  1
  O  O26  1  0.634817  0.551212  0.786978  1
  O  O27  1  0.134817  0.448788  0.713022  1
  O  O28  1  0.038890  0.750000  0.854889  1
  O  O29  1  0.538890  0.250000  0.645111  1
  O  O30  1  0.961110  0.250000  0.145111  1
  O  O31  1  0.461110  0.750000  0.354889  1
  O  O32  1  0.358470  0.750000  0.626443  1
  O  O33  1  0.858470  0.250000  0.873557  1
  O  O34  1  0.641530  0.250000  0.373557  1
  O  O35  1  0.141530  0.750000  0.126443  1
