# generated using pymatgen
data_Eu2(WO4)3
_symmetry_space_group_name_H-M   'P 1'
_cell_length_a   7.02778877
_cell_length_b   7.02778911
_cell_length_c   11.57221065
_cell_angle_alpha   100.91510309
_cell_angle_beta   100.91510361
_cell_angle_gamma   111.55714964
_symmetry_Int_Tables_number   1
_chemical_formula_structural   Eu2(WO4)3
_chemical_formula_sum   'Eu4 W6 O24'
_cell_volume   500.53414629
_cell_formula_units_Z   2
loop_
 _symmetry_equiv_pos_site_id
 _symmetry_equiv_pos_as_xyz
  1  'x, y, z'
loop_
 _atom_site_type_symbol
 _atom_site_label
 _atom_site_symmetry_multiplicity
 _atom_site_fract_x
 _atom_site_fract_y
 _atom_site_fract_z
 _atom_site_occupancy
  Eu  Eu0  1  0.287114  0.044637  0.594078  1
  Eu  Eu1  1  0.955363  0.712886  0.905922  1
  Eu  Eu2  1  0.712886  0.955363  0.405922  1
  Eu  Eu3  1  0.044637  0.287114  0.094078  1
  W  W4  1  0.866316  0.133684  0.750000  1
  W  W5  1  0.133684  0.866316  0.250000  1
  W  W6  1  0.459450  0.249826  0.951386  1
  W  W7  1  0.750174  0.540550  0.548614  1
  W  W8  1  0.540550  0.750174  0.048614  1
  W  W9  1  0.249826  0.459450  0.451386  1
  O  O10  1  0.791384  0.877811  0.780282  1
  O  O11  1  0.122189  0.208616  0.719718  1
  O  O12  1  0.208616  0.122189  0.219718  1
  O  O13  1  0.877811  0.791384  0.280282  1
  O  O14  1  0.661949  0.083428  0.607925  1
  O  O15  1  0.916573  0.338051  0.892075  1
  O  O16  1  0.338051  0.916573  0.392075  1
  O  O17  1  0.083428  0.661949  0.107925  1
  O  O18  1  0.456013  0.104879  0.800953  1
  O  O19  1  0.895121  0.543987  0.699047  1
  O  O20  1  0.543987  0.895121  0.199047  1
  O  O21  1  0.104879  0.456013  0.300953  1
  O  O22  1  0.184232  0.084562  0.959575  1
  O  O23  1  0.915438  0.815768  0.540425  1
  O  O24  1  0.815768  0.915438  0.040425  1
  O  O25  1  0.084562  0.184232  0.459575  1
  O  O26  1  0.472099  0.396317  0.572796  1
  O  O27  1  0.603683  0.527901  0.927204  1
  O  O28  1  0.527901  0.603683  0.427204  1
  O  O29  1  0.396317  0.472099  0.072796  1
  O  O30  1  0.339602  0.772688  0.940010  1
  O  O31  1  0.227312  0.660398  0.559990  1
  O  O32  1  0.660398  0.227312  0.059990  1
  O  O33  1  0.772688  0.339602  0.440010  1
