# generated using pymatgen
data_EuY2O4
_symmetry_space_group_name_H-M   'P 1'
_cell_length_a   10.16602520
_cell_length_b   11.99776999
_cell_length_c   3.42186956
_cell_angle_alpha   89.83660694
_cell_angle_beta   90.19810268
_cell_angle_gamma   90.18368659
_symmetry_Int_Tables_number   1
_chemical_formula_structural   EuY2O4
_chemical_formula_sum   'Eu4 Y8 O16'
_cell_volume   417.35784749
_cell_formula_units_Z   4
loop_
 _symmetry_equiv_pos_site_id
 _symmetry_equiv_pos_as_xyz
  1  'x, y, z'
loop_
 _atom_site_type_symbol
 _atom_site_label
 _atom_site_symmetry_multiplicity
 _atom_site_fract_x
 _atom_site_fract_y
 _atom_site_fract_z
 _atom_site_occupancy
  Eu  Eu0  1  0.244252  0.351340  0.755229  1
  Eu  Eu1  1  0.253141  0.848199  0.247786  1
  Eu  Eu2  1  0.745923  0.149476  0.756033  1
  Eu  Eu3  1  0.754520  0.649983  0.256383  1
  Y  Y4  1  0.074977  0.112748  0.749689  1
  Y  Y5  1  0.078243  0.609400  0.754681  1
  Y  Y6  1  0.420681  0.109184  0.250726  1
  Y  Y7  1  0.426597  0.612448  0.248766  1
  Y  Y8  1  0.573766  0.386618  0.751204  1
  Y  Y9  1  0.579118  0.889773  0.755348  1
  Y  Y10  1  0.919374  0.389674  0.253461  1
  Y  Y11  1  0.925603  0.887525  0.251388  1
  O  O12  1  0.020574  0.717273  0.254415  1
  O  O13  1  0.079625  0.922986  0.748766  1
  O  O14  1  0.123797  0.476421  0.254288  1
  O  O15  1  0.209380  0.177486  0.250402  1
  O  O16  1  0.291036  0.673378  0.749786  1
  O  O17  1  0.373458  0.976917  0.752939  1
  O  O18  1  0.419736  0.422438  0.253477  1
  O  O19  1  0.483838  0.214756  0.750836  1
  O  O20  1  0.518321  0.783542  0.255134  1
  O  O21  1  0.580317  0.576896  0.751430  1
  O  O22  1  0.627166  0.021840  0.254929  1
  O  O23  1  0.707636  0.324079  0.251182  1
  O  O24  1  0.791590  0.823337  0.752706  1
  O  O25  1  0.873207  0.522832  0.752643  1
  O  O26  1  0.921543  0.076788  0.248841  1
  O  O27  1  0.978671  0.282517  0.753042  1
