# generated using pymatgen
data_Eu2Zr2O7
_symmetry_space_group_name_H-M   'P 1'
_cell_length_a   7.66487241
_cell_length_b   7.65962864
_cell_length_c   7.66145044
_cell_angle_alpha   59.89147911
_cell_angle_beta   59.92627253
_cell_angle_gamma   59.92449328
_symmetry_Int_Tables_number   1
_chemical_formula_structural   Eu2Zr2O7
_chemical_formula_sum   'Eu4 Zr4 O14'
_cell_volume   317.43971456
_cell_formula_units_Z   2
loop_
 _symmetry_equiv_pos_site_id
 _symmetry_equiv_pos_as_xyz
  1  'x, y, z'
loop_
 _atom_site_type_symbol
 _atom_site_label
 _atom_site_symmetry_multiplicity
 _atom_site_fract_x
 _atom_site_fract_y
 _atom_site_fract_z
 _atom_site_occupancy
  Eu  Eu0  1  0.125002  0.625005  0.624996  1
  Eu  Eu1  1  0.625009  0.125014  0.624998  1
  Eu  Eu2  1  0.625002  0.624998  0.124997  1
  Eu  Eu3  1  0.625010  0.625000  0.625003  1
  Zr  Zr4  1  0.124997  0.124999  0.125002  1
  Zr  Zr5  1  0.124997  0.125000  0.625000  1
  Zr  Zr6  1  0.125000  0.624998  0.125000  1
  Zr  Zr7  1  0.624999  0.125001  0.125000  1
  O  O8  1  0.789901  0.789994  0.209926  1
  O  O9  1  0.789894  0.209959  0.790003  1
  O  O10  1  0.209985  0.789879  0.789835  1
  O  O11  1  0.789902  0.210118  0.210049  1
  O  O12  1  0.210159  0.789882  0.210192  1
  O  O13  1  0.210091  0.210167  0.789900  1
  O  O14  1  0.039913  0.039830  0.460097  1
  O  O15  1  0.039837  0.460116  0.039811  1
  O  O16  1  0.460097  0.039881  0.039952  1
  O  O17  1  0.040012  0.460119  0.460161  1
  O  O18  1  0.750064  0.750035  0.749836  1
  O  O19  1  0.460102  0.040041  0.459996  1
  O  O20  1  0.460094  0.460002  0.040075  1
  O  O21  1  0.499934  0.499962  0.500169  1
