# generated using pymatgen
data_Eu3IrO7
_symmetry_space_group_name_H-M   'P 1'
_cell_length_a   6.59374737
_cell_length_b   6.59374736
_cell_length_c   7.54248683
_cell_angle_alpha   90.00000000
_cell_angle_beta   90.00000000
_cell_angle_gamma   110.85993165
_symmetry_Int_Tables_number   1
_chemical_formula_structural   Eu3IrO7
_chemical_formula_sum   'Eu6 Ir2 O14'
_cell_volume   306.43401067
_cell_formula_units_Z   2
loop_
 _symmetry_equiv_pos_site_id
 _symmetry_equiv_pos_as_xyz
  1  'x, y, z'
loop_
 _atom_site_type_symbol
 _atom_site_label
 _atom_site_symmetry_multiplicity
 _atom_site_fract_x
 _atom_site_fract_y
 _atom_site_fract_z
 _atom_site_occupancy
  O  O0  1  0.588392  0.588392  0.750000  1
  O  O1  1  0.411608  0.411608  0.250000  1
  O  O2  1  0.108231  0.842761  0.750000  1
  O  O3  1  0.891769  0.157239  0.250000  1
  O  O4  1  0.842761  0.108231  0.750000  1
  O  O5  1  0.157239  0.891769  0.250000  1
  O  O6  1  0.190427  0.441692  0.960731  1
  O  O7  1  0.809573  0.558308  0.460731  1
  O  O8  1  0.441692  0.190427  0.960731  1
  O  O9  1  0.558308  0.809573  0.460731  1
  O  O10  1  0.190427  0.441692  0.539269  1
  O  O11  1  0.809573  0.558308  0.039269  1
  O  O12  1  0.558308  0.809573  0.039269  1
  O  O13  1  0.441692  0.190427  0.539269  1
  Eu  Eu14  1  0.000000  0.000000  0.000000  1
  Eu  Eu15  1  0.000000  0.000000  0.500000  1
  Eu  Eu16  1  0.935749  0.477946  0.750000  1
  Eu  Eu17  1  0.064251  0.522054  0.250000  1
  Eu  Eu18  1  0.477946  0.935749  0.750000  1
  Eu  Eu19  1  0.522054  0.064251  0.250000  1
  Ir  Ir20  1  0.500000  0.500000  0.000000  1
  Ir  Ir21  1  0.500000  0.500000  0.500000  1
