# generated using pymatgen
data_Ce3MoO7
_symmetry_space_group_name_H-M   'P 1'
_cell_length_a   7.64566489
_cell_length_b   7.59098233
_cell_length_c   10.79855390
_cell_angle_alpha   89.99649798
_cell_angle_beta   90.00508380
_cell_angle_gamma   89.95180652
_symmetry_Int_Tables_number   1
_chemical_formula_structural   Ce3MoO7
_chemical_formula_sum   'Ce12 Mo4 O28'
_cell_volume   626.72740247
_cell_formula_units_Z   4
loop_
 _symmetry_equiv_pos_site_id
 _symmetry_equiv_pos_as_xyz
  1  'x, y, z'
loop_
 _atom_site_type_symbol
 _atom_site_label
 _atom_site_symmetry_multiplicity
 _atom_site_fract_x
 _atom_site_fract_y
 _atom_site_fract_z
 _atom_site_occupancy
  Ce  Ce0  1  0.213689  0.754866  0.469819  1
  Ce  Ce1  1  0.703594  0.740885  0.978105  1
  Ce  Ce2  1  0.286249  0.244884  0.970026  1
  Ce  Ce3  1  0.296369  0.240714  0.521854  1
  Ce  Ce4  1  0.203692  0.759149  0.021987  1
  Ce  Ce5  1  0.786226  0.255019  0.030102  1
  Ce  Ce6  1  0.967072  0.007247  0.756423  1
  Ce  Ce7  1  0.467140  0.492809  0.243668  1
  Ce  Ce8  1  0.796344  0.259326  0.478018  1
  Ce  Ce9  1  0.532715  0.992730  0.256336  1
  Ce  Ce10  1  0.713638  0.745059  0.530069  1
  Ce  Ce11  1  0.032837  0.507278  0.743577  1
  Mo  Mo12  1  0.003766  0.499621  0.249329  1
  Mo  Mo13  1  0.496410  0.500554  0.749291  1
  Mo  Mo14  1  0.996347  0.999384  0.250653  1
  Mo  Mo15  1  0.503730  0.000399  0.750692  1
  O  O16  1  0.334126  0.952083  0.600020  1
  O  O17  1  0.215195  0.037806  0.373775  1
  O  O18  1  0.787475  0.961365  0.385739  1
  O  O19  1  0.276420  0.539399  0.872211  1
  O  O20  1  0.887558  0.250596  0.257582  1
  O  O21  1  0.287580  0.538611  0.614102  1
  O  O22  1  0.212428  0.461410  0.114189  1
  O  O23  1  0.986376  0.761928  0.619010  1
  O  O24  1  0.013654  0.261800  0.880869  1
  O  O25  1  0.666300  0.452297  0.899879  1
  O  O26  1  0.469761  0.755007  0.113366  1
  O  O27  1  0.612381  0.749447  0.757516  1
  O  O28  1  0.715560  0.462352  0.626364  1
  O  O29  1  0.387631  0.249545  0.742427  1
  O  O30  1  0.969633  0.745226  0.886699  1
  O  O31  1  0.712236  0.038649  0.885878  1
  O  O32  1  0.223725  0.460452  0.372259  1
  O  O33  1  0.784629  0.537714  0.126192  1
  O  O34  1  0.486317  0.738066  0.380823  1
  O  O35  1  0.833833  0.547789  0.399889  1
  O  O36  1  0.530249  0.254937  0.386682  1
  O  O37  1  0.165972  0.047758  0.100163  1
  O  O38  1  0.776256  0.960441  0.127869  1
  O  O39  1  0.723639  0.039560  0.627914  1
  O  O40  1  0.284778  0.962227  0.873662  1
  O  O41  1  0.030444  0.244943  0.613251  1
  O  O42  1  0.112384  0.750489  0.242542  1
  O  O43  1  0.513643  0.238179  0.119175  1
