# generated using pymatgen
data_Eu3NbO7
_symmetry_space_group_name_H-M   'P 1'
_cell_length_a   6.59292880
_cell_length_b   6.59292811
_cell_length_c   7.73916872
_cell_angle_alpha   90.00000000
_cell_angle_beta   90.00000000
_cell_angle_gamma   110.26354869
_symmetry_Int_Tables_number   1
_chemical_formula_structural   Eu3NbO7
_chemical_formula_sum   'Eu6 Nb2 O14'
_cell_volume   315.57642950
_cell_formula_units_Z   2
loop_
 _symmetry_equiv_pos_site_id
 _symmetry_equiv_pos_as_xyz
  1  'x, y, z'
loop_
 _atom_site_type_symbol
 _atom_site_label
 _atom_site_symmetry_multiplicity
 _atom_site_fract_x
 _atom_site_fract_y
 _atom_site_fract_z
 _atom_site_occupancy
  Eu  Eu0  1  0.507670  0.507670  0.250000  1
  Eu  Eu1  1  0.492330  0.492330  0.750000  1
  Eu  Eu2  1  0.468994  0.002858  0.002560  1
  Eu  Eu3  1  0.531006  0.997142  0.502560  1
  Eu  Eu4  1  0.002858  0.468994  0.497440  1
  Eu  Eu5  1  0.997142  0.531006  0.997440  1
  Nb  Nb6  1  0.001866  0.001866  0.250000  1
  Nb  Nb7  1  0.998134  0.998134  0.750000  1
  O  O8  1  0.316965  0.068844  0.283865  1
  O  O9  1  0.683035  0.931156  0.783865  1
  O  O10  1  0.068844  0.316965  0.216135  1
  O  O11  1  0.931156  0.683035  0.716135  1
  O  O12  1  0.923417  0.677178  0.276842  1
  O  O13  1  0.076583  0.322822  0.776842  1
  O  O14  1  0.677178  0.923417  0.223158  1
  O  O15  1  0.322822  0.076583  0.723158  1
  O  O16  1  0.628041  0.371959  0.000000  1
  O  O17  1  0.371959  0.628041  0.500000  1
  O  O18  1  0.362218  0.637782  0.000000  1
  O  O19  1  0.637782  0.362218  0.500000  1
  O  O20  1  0.058238  0.941762  0.000000  1
  O  O21  1  0.941762  0.058238  0.500000  1
