# generated using pymatgen
data_Eu3NbO7
_symmetry_space_group_name_H-M   'P 1'
_cell_length_a   6.58278025
_cell_length_b   6.58278025
_cell_length_c   7.76771539
_cell_angle_alpha   90.00000000
_cell_angle_beta   90.00000000
_cell_angle_gamma   110.84133121
_symmetry_Int_Tables_number   1
_chemical_formula_structural   Eu3NbO7
_chemical_formula_sum   'Eu6 Nb2 O14'
_cell_volume   314.57450172
_cell_formula_units_Z   2
loop_
 _symmetry_equiv_pos_site_id
 _symmetry_equiv_pos_as_xyz
  1  'x, y, z'
loop_
 _atom_site_type_symbol
 _atom_site_label
 _atom_site_symmetry_multiplicity
 _atom_site_fract_x
 _atom_site_fract_y
 _atom_site_fract_z
 _atom_site_occupancy
  Eu  Eu0  1  0.048284  0.515208  0.250000  1
  Eu  Eu1  1  0.484792  0.951716  0.750000  1
  Eu  Eu2  1  0.000000  0.000000  0.000000  1
  Eu  Eu3  1  0.000000  0.000000  0.500000  1
  Eu  Eu4  1  0.951716  0.484792  0.750000  1
  Eu  Eu5  1  0.515208  0.048284  0.250000  1
  Nb  Nb6  1  0.500000  0.500000  0.000000  1
  Nb  Nb7  1  0.500000  0.500000  0.500000  1
  O  O8  1  0.150231  0.885669  0.250000  1
  O  O9  1  0.114331  0.849769  0.750000  1
  O  O10  1  0.177705  0.432311  0.527690  1
  O  O11  1  0.567689  0.822295  0.027690  1
  O  O12  1  0.567689  0.822295  0.472310  1
  O  O13  1  0.177705  0.432311  0.972310  1
  O  O14  1  0.556816  0.556816  0.750000  1
  O  O15  1  0.443184  0.443184  0.250000  1
  O  O16  1  0.432311  0.177705  0.527690  1
  O  O17  1  0.432311  0.177705  0.972310  1
  O  O18  1  0.822295  0.567689  0.027690  1
  O  O19  1  0.822295  0.567689  0.472310  1
  O  O20  1  0.885669  0.150231  0.250000  1
  O  O21  1  0.849769  0.114331  0.750000  1
