# generated using pymatgen
data_Eu3OsO7
_symmetry_space_group_name_H-M   'P 1'
_cell_length_a   6.63457404
_cell_length_b   6.63457404
_cell_length_c   7.54007783
_cell_angle_alpha   90.00000000
_cell_angle_beta   90.00000000
_cell_angle_gamma   110.32159784
_symmetry_Int_Tables_number   1
_chemical_formula_structural   Eu3OsO7
_chemical_formula_sum   'Eu6 Os2 O14'
_cell_volume   311.23808714
_cell_formula_units_Z   2
loop_
 _symmetry_equiv_pos_site_id
 _symmetry_equiv_pos_as_xyz
  1  'x, y, z'
loop_
 _atom_site_type_symbol
 _atom_site_label
 _atom_site_symmetry_multiplicity
 _atom_site_fract_x
 _atom_site_fract_y
 _atom_site_fract_z
 _atom_site_occupancy
  Eu  Eu0  1  -0.000000  -0.000000  0.000000  1
  Eu  Eu1  1  -0.000000  -0.000000  0.500000  1
  Eu  Eu2  1  0.514827  0.045906  0.249999  1
  Eu  Eu3  1  0.485172  0.954093  0.750000  1
  Eu  Eu4  1  0.954093  0.485172  0.750000  1
  Eu  Eu5  1  0.045906  0.514827  0.249999  1
  Os  Os6  1  0.500000  0.500000  0.000000  1
  Os  Os7  1  0.500000  0.500000  0.500000  1
  O  O8  1  0.449455  0.449455  0.249999  1
  O  O9  1  0.550544  0.550544  0.750000  1
  O  O10  1  0.149704  0.882678  0.249999  1
  O  O11  1  0.850298  0.117324  0.750000  1
  O  O12  1  0.117324  0.850298  0.750000  1
  O  O13  1  0.882678  0.149704  0.249999  1
  O  O14  1  0.444070  0.195741  0.972177  1
  O  O15  1  0.555931  0.804260  0.472178  1
  O  O16  1  0.804260  0.555931  0.027822  1
  O  O17  1  0.195741  0.444070  0.527822  1
  O  O18  1  0.555931  0.804260  0.027822  1
  O  O19  1  0.444070  0.195741  0.527822  1
  O  O20  1  0.195741  0.444070  0.972177  1
  O  O21  1  0.804260  0.555931  0.472178  1
