# generated using pymatgen
data_Eu3ReO7
_symmetry_space_group_name_H-M   'P 1'
_cell_length_a   6.70778124
_cell_length_b   6.70778082
_cell_length_c   7.64003691
_cell_angle_alpha   90.00000000
_cell_angle_beta   90.00000000
_cell_angle_gamma   110.30852509
_symmetry_Int_Tables_number   1
_chemical_formula_structural   Eu3ReO7
_chemical_formula_sum   'Eu6 Re2 O14'
_cell_volume   322.38937023
_cell_formula_units_Z   2
loop_
 _symmetry_equiv_pos_site_id
 _symmetry_equiv_pos_as_xyz
  1  'x, y, z'
loop_
 _atom_site_type_symbol
 _atom_site_label
 _atom_site_symmetry_multiplicity
 _atom_site_fract_x
 _atom_site_fract_y
 _atom_site_fract_z
 _atom_site_occupancy
  Eu  Eu0  1  0.968440  0.488056  0.750000  1
  Eu  Eu1  1  0.000000  0.000000  0.500000  1
  Eu  Eu2  1  0.511944  0.031560  0.250000  1
  Eu  Eu3  1  0.488056  0.968440  0.750000  1
  Eu  Eu4  1  0.031560  0.511944  0.250000  1
  Eu  Eu5  1  0.000000  0.000000  0.000000  1
  Re  Re6  1  0.500000  0.500000  0.000000  1
  Re  Re7  1  0.500000  0.500000  0.500000  1
  O  O8  1  0.878072  0.147783  0.250000  1
  O  O9  1  0.799871  0.556710  0.481586  1
  O  O10  1  0.556710  0.799871  0.018414  1
  O  O11  1  0.200129  0.443290  0.981586  1
  O  O12  1  0.799871  0.556710  0.018414  1
  O  O13  1  0.530185  0.530185  0.750000  1
  O  O14  1  0.121928  0.852217  0.750000  1
  O  O15  1  0.852217  0.121928  0.750000  1
  O  O16  1  0.443290  0.200129  0.981586  1
  O  O17  1  0.147783  0.878072  0.250000  1
  O  O18  1  0.200129  0.443290  0.518414  1
  O  O19  1  0.469815  0.469815  0.250000  1
  O  O20  1  0.556710  0.799871  0.481586  1
  O  O21  1  0.443290  0.200129  0.518414  1
