# generated using pymatgen
data_Eu3RuO7
_symmetry_space_group_name_H-M   'P 1'
_cell_length_a   6.57640430
_cell_length_b   6.57640430
_cell_length_c   7.57134445
_cell_angle_alpha   90.00000000
_cell_angle_beta   90.00000000
_cell_angle_gamma   111.20347948
_symmetry_Int_Tables_number   1
_chemical_formula_structural   Eu3RuO7
_chemical_formula_sum   'Eu6 Ru2 O14'
_cell_volume   305.28576464
_cell_formula_units_Z   2
loop_
 _symmetry_equiv_pos_site_id
 _symmetry_equiv_pos_as_xyz
  1  'x, y, z'
loop_
 _atom_site_type_symbol
 _atom_site_label
 _atom_site_symmetry_multiplicity
 _atom_site_fract_x
 _atom_site_fract_y
 _atom_site_fract_z
 _atom_site_occupancy
  O  O0  1  0.582339  0.582339  0.750000  1
  O  O1  1  0.417661  0.417661  0.250000  1
  O  O2  1  0.106648  0.841554  0.750000  1
  O  O3  1  0.893352  0.158446  0.250000  1
  O  O4  1  0.841554  0.106648  0.750000  1
  O  O5  1  0.158446  0.893352  0.250000  1
  O  O6  1  0.192473  0.442239  0.960519  1
  O  O7  1  0.807527  0.557761  0.460519  1
  O  O8  1  0.442239  0.192473  0.960519  1
  O  O9  1  0.557761  0.807527  0.460519  1
  O  O10  1  0.192473  0.442239  0.539481  1
  O  O11  1  0.807527  0.557761  0.039481  1
  O  O12  1  0.557761  0.807527  0.039481  1
  O  O13  1  0.442239  0.192473  0.539481  1
  Ru  Ru14  1  0.500000  0.500000  0.500000  1
  Ru  Ru15  1  0.500000  0.500000  0.000000  1
  Eu  Eu16  1  0.930049  0.475937  0.750000  1
  Eu  Eu17  1  0.069951  0.524063  0.250000  1
  Eu  Eu18  1  0.475937  0.930049  0.750000  1
  Eu  Eu19  1  0.524063  0.069951  0.250000  1
  Eu  Eu20  1  0.000000  0.000000  0.500000  1
  Eu  Eu21  1  0.000000  0.000000  0.000000  1
