# generated using pymatgen
data_EuCu(MoO4)2
_symmetry_space_group_name_H-M   'P 1'
_cell_length_a   10.06501961
_cell_length_b   10.58264942
_cell_length_c   15.07684641
_cell_angle_alpha   90.00000000
_cell_angle_beta   90.00000000
_cell_angle_gamma   90.00000000
_symmetry_Int_Tables_number   1
_chemical_formula_structural   EuCu(MoO4)2
_chemical_formula_sum   'Eu8 Cu8 Mo16 O64'
_cell_volume   1605.90387169
_cell_formula_units_Z   8
loop_
 _symmetry_equiv_pos_site_id
 _symmetry_equiv_pos_as_xyz
  1  'x, y, z'
loop_
 _atom_site_type_symbol
 _atom_site_label
 _atom_site_symmetry_multiplicity
 _atom_site_fract_x
 _atom_site_fract_y
 _atom_site_fract_z
 _atom_site_occupancy
  Eu  Eu0  1  0.275535  0.966282  0.398467  1
  Eu  Eu1  1  0.775535  0.533718  0.398467  1
  Eu  Eu2  1  0.775535  0.033718  0.101533  1
  Eu  Eu3  1  0.724465  0.533718  0.898467  1
  Eu  Eu4  1  0.224465  0.966282  0.898467  1
  Eu  Eu5  1  0.275535  0.466282  0.101533  1
  Eu  Eu6  1  0.224465  0.466282  0.601533  1
  Eu  Eu7  1  0.724465  0.033718  0.601533  1
  Cu  Cu8  1  0.197652  0.816117  0.700449  1
  Cu  Cu9  1  0.302348  0.316117  0.299551  1
  Cu  Cu10  1  0.802348  0.683883  0.200449  1
  Cu  Cu11  1  0.697652  0.183883  0.799551  1
  Cu  Cu12  1  0.697652  0.683883  0.700449  1
  Cu  Cu13  1  0.802348  0.183883  0.299551  1
  Cu  Cu14  1  0.197652  0.316117  0.799551  1
  Cu  Cu15  1  0.302348  0.816117  0.200449  1
  Mo  Mo16  1  0.668591  0.896394  0.345423  1
  Mo  Mo17  1  0.331409  0.603606  0.845423  1
  Mo  Mo18  1  0.500401  0.277576  0.443487  1
  Mo  Mo19  1  0.000401  0.222424  0.443487  1
  Mo  Mo20  1  0.499599  0.722424  0.556513  1
  Mo  Mo21  1  0.831409  0.896394  0.845423  1
  Mo  Mo22  1  0.499599  0.222424  0.943487  1
  Mo  Mo23  1  0.000401  0.722424  0.056513  1
  Mo  Mo24  1  0.168591  0.603606  0.345423  1
  Mo  Mo25  1  0.999599  0.277576  0.943487  1
  Mo  Mo26  1  0.168591  0.103606  0.154577  1
  Mo  Mo27  1  0.331409  0.103606  0.654577  1
  Mo  Mo28  1  0.999599  0.777576  0.556513  1
  Mo  Mo29  1  0.668591  0.396394  0.154577  1
  Mo  Mo30  1  0.831409  0.396394  0.654577  1
  Mo  Mo31  1  0.500401  0.777576  0.056513  1
  O  O32  1  0.403087  0.116632  0.876823  1
  O  O33  1  0.493864  0.909971  0.332802  1
  O  O34  1  0.747913  0.014360  0.775396  1
  O  O35  1  0.752087  0.514360  0.224604  1
  O  O36  1  0.589699  0.136088  0.024915  1
  O  O37  1  0.790601  0.420661  0.541794  1
  O  O38  1  0.615421  0.809732  0.631388  1
  O  O39  1  0.752087  0.014360  0.275396  1
  O  O40  1  0.290601  0.579339  0.958206  1
  O  O41  1  0.107821  0.833696  0.005255  1
  O  O42  1  0.096913  0.116632  0.376823  1
  O  O43  1  0.115421  0.690268  0.631388  1
  O  O44  1  0.607821  0.666304  0.005255  1
  O  O45  1  0.247913  0.985640  0.724604  1
  O  O46  1  0.506136  0.590029  0.832802  1
  O  O47  1  0.892179  0.166304  0.994745  1
  O  O48  1  0.727274  0.238728  0.185519  1
  O  O49  1  0.709399  0.920661  0.458206  1
  O  O50  1  0.884579  0.809732  0.131388  1
  O  O51  1  0.790601  0.920661  0.958206  1
  O  O52  1  0.903087  0.883368  0.623177  1
  O  O53  1  0.252087  0.485640  0.275396  1
  O  O54  1  0.384579  0.190268  0.368612  1
  O  O55  1  0.596913  0.883368  0.123177  1
  O  O56  1  0.096913  0.616632  0.123177  1
  O  O57  1  0.410301  0.363912  0.524915  1
  O  O58  1  0.089699  0.863912  0.475085  1
  O  O59  1  0.252087  0.985640  0.224604  1
  O  O60  1  0.993864  0.590029  0.332802  1
  O  O61  1  0.589699  0.636088  0.475085  1
  O  O62  1  0.615421  0.309732  0.868612  1
  O  O63  1  0.993864  0.090029  0.167198  1
  O  O64  1  0.910301  0.636088  0.975085  1
  O  O65  1  0.910301  0.136088  0.524915  1
  O  O66  1  0.272726  0.761272  0.814481  1
  O  O67  1  0.089699  0.363912  0.024915  1
  O  O68  1  0.403087  0.616632  0.623177  1
  O  O69  1  0.607821  0.166304  0.494745  1
  O  O70  1  0.107821  0.333696  0.494745  1
  O  O71  1  0.006136  0.909971  0.832802  1
  O  O72  1  0.709399  0.420661  0.041794  1
  O  O73  1  0.392179  0.333696  0.994745  1
  O  O74  1  0.247913  0.485640  0.775396  1
  O  O75  1  0.006136  0.409971  0.667198  1
  O  O76  1  0.884579  0.309732  0.368612  1
  O  O77  1  0.384579  0.690268  0.131388  1
  O  O78  1  0.903087  0.383368  0.876823  1
  O  O79  1  0.727274  0.738728  0.314481  1
  O  O80  1  0.227274  0.261272  0.185519  1
  O  O81  1  0.493864  0.409971  0.167198  1
  O  O82  1  0.772726  0.238728  0.685519  1
  O  O83  1  0.892179  0.666304  0.505255  1
  O  O84  1  0.227274  0.761272  0.314481  1
  O  O85  1  0.747913  0.514360  0.724604  1
  O  O86  1  0.209399  0.579339  0.458206  1
  O  O87  1  0.209399  0.079339  0.041794  1
  O  O88  1  0.772726  0.738728  0.814481  1
  O  O89  1  0.596913  0.383368  0.376823  1
  O  O90  1  0.392179  0.833696  0.505255  1
  O  O91  1  0.115421  0.190268  0.868612  1
  O  O92  1  0.272726  0.261272  0.685519  1
  O  O93  1  0.290601  0.079339  0.541794  1
  O  O94  1  0.506136  0.090029  0.667198  1
  O  O95  1  0.410301  0.863912  0.975085  1
