# generated using pymatgen
data_Eu2Mo5O18
_symmetry_space_group_name_H-M   'P 1'
_cell_length_a   9.53173797
_cell_length_b   9.62478822
_cell_length_c   19.59061176
_cell_angle_alpha   90.00000000
_cell_angle_beta   90.00000000
_cell_angle_gamma   90.00000000
_symmetry_Int_Tables_number   1
_chemical_formula_structural   Eu2Mo5O18
_chemical_formula_sum   'Eu8 Mo20 O72'
_cell_volume   1797.26151672
_cell_formula_units_Z   4
loop_
 _symmetry_equiv_pos_site_id
 _symmetry_equiv_pos_as_xyz
  1  'x, y, z'
loop_
 _atom_site_type_symbol
 _atom_site_label
 _atom_site_symmetry_multiplicity
 _atom_site_fract_x
 _atom_site_fract_y
 _atom_site_fract_z
 _atom_site_occupancy
  Eu  Eu0  1  0.026792  0.732321  0.884948  1
  Eu  Eu1  1  0.526792  0.767679  0.615052  1
  Eu  Eu2  1  0.973208  0.267679  0.115052  1
  Eu  Eu3  1  0.473208  0.732321  0.115052  1
  Eu  Eu4  1  0.473208  0.232321  0.384948  1
  Eu  Eu5  1  0.026792  0.232321  0.615052  1
  Eu  Eu6  1  0.973208  0.767679  0.384948  1
  Eu  Eu7  1  0.526792  0.267679  0.884948  1
  Mo  Mo8  1  0.561180  0.642635  0.410124  1
  Mo  Mo9  1  0.250000  0.965224  0.500000  1
  Mo  Mo10  1  0.323689  0.867822  0.301148  1
  Mo  Mo11  1  0.938820  0.142635  0.910124  1
  Mo  Mo12  1  0.561180  0.142635  0.089876  1
  Mo  Mo13  1  0.438820  0.357365  0.589876  1
  Mo  Mo14  1  0.176311  0.367822  0.801148  1
  Mo  Mo15  1  0.938820  0.642635  0.589876  1
  Mo  Mo16  1  0.176311  0.867822  0.698852  1
  Mo  Mo17  1  0.323689  0.367822  0.198852  1
  Mo  Mo18  1  0.061180  0.857365  0.089876  1
  Mo  Mo19  1  0.676311  0.132178  0.698852  1
  Mo  Mo20  1  0.823689  0.632178  0.198852  1
  Mo  Mo21  1  0.750000  0.034776  0.500000  1
  Mo  Mo22  1  0.750000  0.534776  0.000000  1
  Mo  Mo23  1  0.823689  0.132178  0.301148  1
  Mo  Mo24  1  0.061180  0.357365  0.410124  1
  Mo  Mo25  1  0.438820  0.857365  0.910124  1
  Mo  Mo26  1  0.250000  0.465224  0.000000  1
  Mo  Mo27  1  0.676311  0.632178  0.801148  1
  O  O28  1  0.434101  0.746846  0.356313  1
  O  O29  1  0.112245  0.071334  0.532207  1
  O  O30  1  0.685660  0.640714  0.069739  1
  O  O31  1  0.850727  0.456393  0.175803  1
  O  O32  1  0.649273  0.456393  0.824197  1
  O  O33  1  0.988739  0.658683  0.503992  1
  O  O34  1  0.106837  0.346730  0.718866  1
  O  O35  1  0.393163  0.846730  0.218866  1
  O  O36  1  0.642735  0.674887  0.204886  1
  O  O37  1  0.887755  0.928666  0.467793  1
  O  O38  1  0.940461  0.966664  0.883892  1
  O  O39  1  0.065899  0.746846  0.643687  1
  O  O40  1  0.065899  0.246846  0.856313  1
  O  O41  1  0.511261  0.658683  0.496008  1
  O  O42  1  0.434101  0.246846  0.143687  1
  O  O43  1  0.612245  0.928666  0.532207  1
  O  O44  1  0.059539  0.033336  0.116108  1
  O  O45  1  0.814340  0.640714  0.930261  1
  O  O46  1  0.142735  0.325113  0.204886  1
  O  O47  1  0.149273  0.043607  0.675803  1
  O  O48  1  0.934101  0.253154  0.356313  1
  O  O49  1  0.488739  0.841317  0.996008  1
  O  O50  1  0.565899  0.753154  0.856313  1
  O  O51  1  0.185660  0.359286  0.069739  1
  O  O52  1  0.559539  0.966664  0.116108  1
  O  O53  1  0.685660  0.140714  0.430261  1
  O  O54  1  0.988739  0.158683  0.996008  1
  O  O55  1  0.314340  0.859286  0.569739  1
  O  O56  1  0.234133  0.794880  0.098108  1
  O  O57  1  0.734133  0.705120  0.401892  1
  O  O58  1  0.357265  0.325113  0.795114  1
  O  O59  1  0.350727  0.543607  0.175803  1
  O  O60  1  0.357265  0.825113  0.704886  1
  O  O61  1  0.393163  0.346730  0.281134  1
  O  O62  1  0.387755  0.571334  0.032207  1
  O  O63  1  0.612245  0.428666  0.967793  1
  O  O64  1  0.387755  0.071334  0.467793  1
  O  O65  1  0.265867  0.294880  0.598108  1
  O  O66  1  0.112245  0.571334  0.967793  1
  O  O67  1  0.893163  0.153270  0.218866  1
  O  O68  1  0.940461  0.466664  0.616108  1
  O  O69  1  0.606837  0.653270  0.718866  1
  O  O70  1  0.814340  0.140714  0.569739  1
  O  O71  1  0.765867  0.705120  0.598108  1
  O  O72  1  0.887755  0.428666  0.032207  1
  O  O73  1  0.106837  0.846730  0.781134  1
  O  O74  1  0.142735  0.825113  0.295114  1
  O  O75  1  0.649273  0.956393  0.675803  1
  O  O76  1  0.059539  0.533336  0.383892  1
  O  O77  1  0.559539  0.466664  0.383892  1
  O  O78  1  0.234133  0.294880  0.401892  1
  O  O79  1  0.765867  0.205120  0.901892  1
  O  O80  1  0.185660  0.859286  0.430261  1
  O  O81  1  0.149273  0.543607  0.824197  1
  O  O82  1  0.265867  0.794880  0.901892  1
  O  O83  1  0.606837  0.153270  0.781134  1
  O  O84  1  0.314340  0.359286  0.930261  1
  O  O85  1  0.850727  0.956393  0.324197  1
  O  O86  1  0.934101  0.753154  0.143687  1
  O  O87  1  0.857265  0.674887  0.795114  1
  O  O88  1  0.893163  0.653270  0.281134  1
  O  O89  1  0.488739  0.341317  0.503992  1
  O  O90  1  0.511261  0.158683  0.003992  1
  O  O91  1  0.011261  0.341317  0.496008  1
  O  O92  1  0.734133  0.205120  0.098108  1
  O  O93  1  0.440461  0.533336  0.616108  1
  O  O94  1  0.857265  0.174887  0.704886  1
  O  O95  1  0.440461  0.033336  0.883892  1
  O  O96  1  0.350727  0.043607  0.324197  1
  O  O97  1  0.011261  0.841317  0.003992  1
  O  O98  1  0.565899  0.253154  0.643687  1
  O  O99  1  0.642735  0.174887  0.295114  1
