# generated using pymatgen
data_Ce3Ru
_symmetry_space_group_name_H-M   'P 1'
_cell_length_a   6.09889459
_cell_length_b   6.96746251
_cell_length_c   9.76127943
_cell_angle_alpha   90.00000000
_cell_angle_beta   90.00000000
_cell_angle_gamma   90.00000000
_symmetry_Int_Tables_number   1
_chemical_formula_structural   Ce3Ru
_chemical_formula_sum   'Ce12 Ru4'
_cell_volume   414.79404529
_cell_formula_units_Z   4
loop_
 _symmetry_equiv_pos_site_id
 _symmetry_equiv_pos_as_xyz
  1  'x, y, z'
loop_
 _atom_site_type_symbol
 _atom_site_label
 _atom_site_symmetry_multiplicity
 _atom_site_fract_x
 _atom_site_fract_y
 _atom_site_fract_z
 _atom_site_occupancy
  Ce  Ce0  1  0.656173  0.165358  0.058711  1
  Ce  Ce1  1  0.347399  0.541718  0.250000  1
  Ce  Ce2  1  0.843827  0.665358  0.058711  1
  Ce  Ce3  1  0.156173  0.334642  0.941289  1
  Ce  Ce4  1  0.343827  0.834642  0.941289  1
  Ce  Ce5  1  0.652601  0.458282  0.750000  1
  Ce  Ce6  1  0.847399  0.958282  0.750000  1
  Ce  Ce7  1  0.343827  0.834642  0.558711  1
  Ce  Ce8  1  0.156173  0.334642  0.558711  1
  Ce  Ce9  1  0.843827  0.665358  0.441289  1
  Ce  Ce10  1  0.152601  0.041718  0.250000  1
  Ce  Ce11  1  0.656173  0.165358  0.441289  1
  Ru  Ru12  1  0.933438  0.362604  0.250000  1
  Ru  Ru13  1  0.433438  0.137396  0.750000  1
  Ru  Ru14  1  0.566562  0.862604  0.250000  1
  Ru  Ru15  1  0.066562  0.637396  0.750000  1
