# generated using pymatgen
data_Eu2ReO5
_symmetry_space_group_name_H-M   'P 1'
_cell_length_a   5.98027890
_cell_length_b   8.77962561
_cell_length_c   8.77962561
_cell_angle_alpha   90.00000000
_cell_angle_beta   90.00000000
_cell_angle_gamma   90.00000000
_symmetry_Int_Tables_number   1
_chemical_formula_structural   Eu2ReO5
_chemical_formula_sum   'Eu8 Re4 O20'
_cell_volume   460.97081671
_cell_formula_units_Z   4
loop_
 _symmetry_equiv_pos_site_id
 _symmetry_equiv_pos_as_xyz
  1  'x, y, z'
loop_
 _atom_site_type_symbol
 _atom_site_label
 _atom_site_symmetry_multiplicity
 _atom_site_fract_x
 _atom_site_fract_y
 _atom_site_fract_z
 _atom_site_occupancy
  O  O0  1  0.500000  0.750000  0.250000  1
  O  O1  1  0.500000  0.250000  0.750000  1
  O  O2  1  0.000000  0.750000  0.250000  1
  O  O3  1  0.000000  0.250000  0.750000  1
  O  O4  1  0.907913  0.661037  0.557055  1
  O  O5  1  0.907913  0.942945  0.661037  1
  O  O6  1  0.907913  0.557055  0.838963  1
  O  O7  1  0.907913  0.838963  0.942945  1
  O  O8  1  0.092087  0.338963  0.442945  1
  O  O9  1  0.092087  0.057055  0.338963  1
  O  O10  1  0.092087  0.442945  0.161037  1
  O  O11  1  0.092087  0.161037  0.057055  1
  O  O12  1  0.606846  0.338419  0.056946  1
  O  O13  1  0.606846  0.443054  0.338419  1
  O  O14  1  0.606846  0.056946  0.161581  1
  O  O15  1  0.606846  0.161581  0.443054  1
  O  O16  1  0.393154  0.661581  0.943054  1
  O  O17  1  0.393154  0.556946  0.661581  1
  O  O18  1  0.393154  0.943054  0.838419  1
  O  O19  1  0.393154  0.838419  0.556946  1
  Eu  Eu20  1  0.248361  0.889897  0.103480  1
  Eu  Eu21  1  0.248361  0.396520  0.889897  1
  Eu  Eu22  1  0.248361  0.103480  0.610103  1
  Eu  Eu23  1  0.248361  0.610103  0.396520  1
  Eu  Eu24  1  0.751639  0.389897  0.603480  1
  Eu  Eu25  1  0.751639  0.896520  0.389897  1
  Eu  Eu26  1  0.751639  0.603480  0.110103  1
  Eu  Eu27  1  0.751639  0.110103  0.896520  1
  Re  Re28  1  0.547728  0.250000  0.250000  1
  Re  Re29  1  0.452272  0.750000  0.750000  1
  Re  Re30  1  0.145468  0.250000  0.250000  1
  Re  Re31  1  0.854532  0.750000  0.750000  1
