# generated using pymatgen
data_Eu2Y2O5
_symmetry_space_group_name_H-M   'P 1'
_cell_length_a   12.05384203
_cell_length_b   15.44035470
_cell_length_c   3.53660138
_cell_angle_alpha   89.99513476
_cell_angle_beta   89.99883017
_cell_angle_gamma   67.00232800
_symmetry_Int_Tables_number   1
_chemical_formula_structural   Eu2Y2O5
_chemical_formula_sum   'Eu8 Y8 O20'
_cell_volume   605.90209153
_cell_formula_units_Z   4
loop_
 _symmetry_equiv_pos_site_id
 _symmetry_equiv_pos_as_xyz
  1  'x, y, z'
loop_
 _atom_site_type_symbol
 _atom_site_label
 _atom_site_symmetry_multiplicity
 _atom_site_fract_x
 _atom_site_fract_y
 _atom_site_fract_z
 _atom_site_occupancy
  Eu  Eu0  1  0.150603  0.941461  0.570635  1
  Eu  Eu1  1  0.651108  0.941941  0.625034  1
  Eu  Eu2  1  0.092790  0.558337  0.079936  1
  Eu  Eu3  1  0.592740  0.558055  0.115470  1
  Eu  Eu4  1  0.407348  0.441857  0.115361  1
  Eu  Eu5  1  0.907224  0.441738  0.079966  1
  Eu  Eu6  1  0.348776  0.058138  0.624945  1
  Eu  Eu7  1  0.849459  0.058410  0.570450  1
  Y  Y8  1  0.478963  0.824753  0.121129  1
  Y  Y9  1  0.303408  0.676144  0.617219  1
  Y  Y10  1  0.979049  0.824384  0.082372  1
  Y  Y11  1  0.803175  0.676278  0.586051  1
  Y  Y12  1  0.196910  0.323762  0.586114  1
  Y  Y13  1  0.021130  0.175554  0.082376  1
  Y  Y14  1  0.696494  0.323847  0.617307  1
  Y  Y15  1  0.520890  0.175322  0.121166  1
  O  O16  1  0.360017  0.895454  0.621895  1
  O  O17  1  0.121921  0.793336  0.586804  1
  O  O18  1  0.621506  0.793986  0.616100  1
  O  O19  1  -0.000088  0.499977  0.576287  1
  O  O20  1  0.860877  0.896069  0.582051  1
  O  O21  1  0.415982  0.706697  0.124078  1
  O  O22  1  0.256797  0.604800  0.118208  1
  O  O23  1  0.244355  0.394852  0.085287  1
  O  O24  1  0.084840  0.292978  0.081874  1
  O  O25  1  0.500003  0.500006  0.619162  1
  O  O26  1  0.915046  0.707057  0.081846  1
  O  O27  1  0.755645  0.605229  0.085355  1
  O  O28  1  0.743179  0.395173  0.118152  1
  O  O29  1  0.584109  0.293280  0.124128  1
  O  O30  1  0.139147  0.103919  0.581968  1
  O  O31  1  0.378551  0.205968  0.616130  1
  O  O32  1  0.000041  -0.000028  0.067774  1
  O  O33  1  0.878021  0.206709  0.586777  1
  O  O34  1  0.639891  0.104586  0.621947  1
  O  O35  1  0.500094  -0.000032  0.127926  1
