# generated using pymatgen
data_Fe11Mo6C5
_symmetry_space_group_name_H-M   'P 1'
_cell_length_a   6.56154584
_cell_length_b   6.69528195
_cell_length_c   6.69528169
_cell_angle_alpha   69.72524374
_cell_angle_beta   65.22047092
_cell_angle_gamma   65.22046574
_symmetry_Int_Tables_number   1
_chemical_formula_structural   Fe11Mo6C5
_chemical_formula_sum   'Fe11 Mo6 C5'
_cell_volume   237.19822014
_cell_formula_units_Z   1
loop_
 _symmetry_equiv_pos_site_id
 _symmetry_equiv_pos_as_xyz
  1  'x, y, z'
loop_
 _atom_site_type_symbol
 _atom_site_label
 _atom_site_symmetry_multiplicity
 _atom_site_fract_x
 _atom_site_fract_y
 _atom_site_fract_z
 _atom_site_occupancy
  Fe  Fe0  1  0.626616  0.807938  0.476470  1
  Fe  Fe1  1  0.205039  0.236741  0.236741  1
  Fe  Fe2  1  0.373384  0.192062  0.523530  1
  Fe  Fe3  1  0.626616  0.476470  0.807938  1
  Fe  Fe4  1  0.336572  0.864633  0.864633  1
  Fe  Fe5  1  0.663428  0.135367  0.135367  1
  Fe  Fe6  1  0.500000  0.164946  0.835054  1
  Fe  Fe7  1  0.794961  0.763259  0.763259  1
  Fe  Fe8  1  0.000000  0.500000  0.500000  1
  Fe  Fe9  1  0.373384  0.523530  0.192062  1
  Fe  Fe10  1  0.500000  0.835054  0.164946  1
  Mo  Mo11  1  0.960493  0.686269  0.082511  1
  Mo  Mo12  1  0.039507  0.917489  0.313731  1
  Mo  Mo13  1  0.960493  0.082511  0.686269  1
  Mo  Mo14  1  0.715401  0.380253  0.380253  1
  Mo  Mo15  1  0.039507  0.313731  0.917489  1
  Mo  Mo16  1  0.284599  0.619747  0.619747  1
  C  C17  1  0.693340  0.559292  0.042573  1
  C  C18  1  0.306660  0.957427  0.440708  1
  C  C19  1  0.000000  0.000000  0.000000  1
  C  C20  1  0.306660  0.440708  0.957427  1
  C  C21  1  0.693340  0.042573  0.559292  1
