# generated using pymatgen
data_Fe11(NiO3)8
_symmetry_space_group_name_H-M   'P 1'
_cell_length_a   5.93936548
_cell_length_b   5.95193980
_cell_length_c   18.28465600
_cell_angle_alpha   60.76393895
_cell_angle_beta   61.08933593
_cell_angle_gamma   59.97634143
_symmetry_Int_Tables_number   1
_chemical_formula_structural   Fe11(NiO3)8
_chemical_formula_sum   'Fe11 Ni8 O24'
_cell_volume   463.26172439
_cell_formula_units_Z   1
loop_
 _symmetry_equiv_pos_site_id
 _symmetry_equiv_pos_as_xyz
  1  'x, y, z'
loop_
 _atom_site_type_symbol
 _atom_site_label
 _atom_site_symmetry_multiplicity
 _atom_site_fract_x
 _atom_site_fract_y
 _atom_site_fract_z
 _atom_site_occupancy
  Fe  Fe0  1  0.976120  0.973757  0.025645  1
  Fe  Fe1  1  0.995709  0.001924  0.333930  1
  Fe  Fe2  1  0.261420  0.255204  0.075764  1
  Fe  Fe3  1  0.988580  0.994796  0.674236  1
  Fe  Fe4  1  0.254291  0.248076  0.416070  1
  Fe  Fe5  1  0.617075  0.136073  0.209102  1
  Fe  Fe6  1  0.616516  0.620554  0.209300  1
  Fe  Fe7  1  0.625000  0.625000  0.375000  1
  Fe  Fe8  1  0.273880  0.276243  0.724355  1
  Fe  Fe9  1  0.632925  0.113927  0.540898  1
  Fe  Fe10  1  0.633484  0.629446  0.540700  1
  Ni  Ni11  1  0.128739  0.619298  0.210998  1
  Ni  Ni12  1  0.624090  0.628292  0.040135  1
  Ni  Ni13  1  0.121261  0.630702  0.539002  1
  Ni  Ni14  1  0.125000  0.125000  0.875000  1
  Ni  Ni15  1  0.125000  0.625000  0.875000  1
  Ni  Ni16  1  0.625000  0.125000  0.875000  1
  Ni  Ni17  1  0.625910  0.621708  0.709865  1
  Ni  Ni18  1  0.625000  0.625000  0.875000  1
  O  O19  1  0.386460  0.376825  0.126912  1
  O  O20  1  0.386751  0.856373  0.126140  1
  O  O21  1  0.383660  0.375925  0.287335  1
  O  O22  1  0.859168  0.375657  0.128908  1
  O  O23  1  0.391656  0.383075  0.456096  1
  O  O24  1  0.389688  0.866930  0.293030  1
  O  O25  1  0.858229  0.393629  0.294029  1
  O  O26  1  0.391771  0.856371  0.455971  1
  O  O27  1  0.850671  0.855030  0.147395  1
  O  O28  1  0.399329  0.394970  0.602605  1
  O  O29  1  0.860312  0.383070  0.456970  1
  O  O30  1  0.858344  0.866925  0.293904  1
  O  O31  1  0.390832  0.874343  0.621092  1
  O  O32  1  0.369157  0.372203  0.791960  1
  O  O33  1  0.863249  0.393627  0.623860  1
  O  O34  1  0.866340  0.874075  0.462665  1
  O  O35  1  0.384393  0.382549  0.950138  1
  O  O36  1  0.369590  0.882908  0.791758  1
  O  O37  1  0.880640  0.371071  0.792514  1
  O  O38  1  0.863540  0.873175  0.623088  1
  O  O39  1  0.369360  0.878929  0.957486  1
  O  O40  1  0.880410  0.367092  0.958242  1
  O  O41  1  0.865607  0.867451  0.799862  1
  O  O42  1  0.880843  0.877797  0.958040  1
