# generated using pymatgen
data_Fe2CoO4
_symmetry_space_group_name_H-M   'P 1'
_cell_length_a   5.97724753
_cell_length_b   5.97724782
_cell_length_c   17.92684774
_cell_angle_alpha   60.07808425
_cell_angle_beta   60.07808264
_cell_angle_gamma   60.26482588
_symmetry_Int_Tables_number   1
_chemical_formula_structural   Fe2CoO4
_chemical_formula_sum   'Fe12 Co6 O24'
_cell_volume   454.32509484
_cell_formula_units_Z   6
loop_
 _symmetry_equiv_pos_site_id
 _symmetry_equiv_pos_as_xyz
  1  'x, y, z'
loop_
 _atom_site_type_symbol
 _atom_site_label
 _atom_site_symmetry_multiplicity
 _atom_site_fract_x
 _atom_site_fract_y
 _atom_site_fract_z
 _atom_site_occupancy
  Fe  Fe0  1  0.127185  0.118200  0.043666  1
  Fe  Fe1  1  0.501569  0.000132  0.165101  1
  Fe  Fe2  1  0.123122  0.126451  0.377112  1
  Fe  Fe3  1  0.501190  0.499022  0.166439  1
  Fe  Fe4  1  -0.000132  0.498431  0.501566  1
  Fe  Fe5  1  0.119248  0.124473  0.710456  1
  Fe  Fe6  1  0.500978  0.498810  0.500228  1
  Fe  Fe7  1  0.873549  0.876878  0.289555  1
  Fe  Fe8  1  0.497945  0.999234  0.833917  1
  Fe  Fe9  1  0.881800  0.872815  0.623001  1
  Fe  Fe10  1  0.000766  0.502055  0.832749  1
  Fe  Fe11  1  0.875527  0.880752  0.956210  1
  Co  Co12  1  0.498747  0.500991  0.998497  1
  Co  Co13  1  0.502458  0.497542  0.333333  1
  Co  Co14  1  0.501430  -0.001489  0.500234  1
  Co  Co15  1  0.001489  0.498570  0.166433  1
  Co  Co16  1  0.499009  0.501253  0.668170  1
  Co  Co17  1  0.498745  0.501255  0.833333  1
  O  O18  1  0.256231  0.248675  0.086328  1
  O  O19  1  0.266991  0.725212  0.088434  1
  O  O20  1  0.268841  0.254291  0.242898  1
  O  O21  1  0.726482  0.258021  0.089465  1
  O  O22  1  0.276104  0.741145  0.243055  1
  O  O23  1  0.250727  0.259419  0.419753  1
  O  O24  1  0.731094  0.748446  0.088935  1
  O  O25  1  0.735488  0.271178  0.244556  1
  O  O26  1  0.258855  0.723896  0.423611  1
  O  O27  1  0.251554  0.268906  0.577732  1
  O  O28  1  0.740581  0.749273  0.246913  1
  O  O29  1  0.728822  0.264512  0.422110  1
  O  O30  1  0.274788  0.733009  0.578233  1
  O  O31  1  0.248967  0.250700  0.756055  1
  O  O32  1  0.741979  0.273518  0.577202  1
  O  O33  1  0.745709  0.731159  0.423769  1
  O  O34  1  0.244539  0.736090  0.753178  1
  O  O35  1  0.257591  0.258781  0.909289  1
  O  O36  1  0.751325  0.743769  0.580339  1
  O  O37  1  0.730348  0.246070  0.753725  1
  O  O38  1  0.263910  0.755461  0.913489  1
  O  O39  1  0.741219  0.742409  0.757377  1
  O  O40  1  0.753930  0.269652  0.912942  1
  O  O41  1  0.749300  0.751033  0.910612  1
