# generated using pymatgen
data_Fe2CuO4
_symmetry_space_group_name_H-M   'P 1'
_cell_length_a   6.05186439
_cell_length_b   6.05186307
_cell_length_c   17.72887614
_cell_angle_alpha   60.88530926
_cell_angle_beta   60.88531112
_cell_angle_gamma   59.09715057
_symmetry_Int_Tables_number   1
_chemical_formula_structural   Fe2CuO4
_chemical_formula_sum   'Fe12 Cu6 O24'
_cell_volume   461.85090383
_cell_formula_units_Z   6
loop_
 _symmetry_equiv_pos_site_id
 _symmetry_equiv_pos_as_xyz
  1  'x, y, z'
loop_
 _atom_site_type_symbol
 _atom_site_label
 _atom_site_symmetry_multiplicity
 _atom_site_fract_x
 _atom_site_fract_y
 _atom_site_fract_z
 _atom_site_occupancy
  Cu  Cu0  1  0.247707  0.247708  0.084304  1
  Cu  Cu1  1  0.625713  0.625712  0.209556  1
  Cu  Cu2  1  0.628225  0.628225  0.374144  1
  Cu  Cu3  1  0.625390  0.625390  0.541264  1
  Cu  Cu4  1  0.622604  0.622603  0.707756  1
  Cu  Cu5  1  0.621592  0.621591  0.874114  1
  Fe  Fe6  1  0.002499  0.002499  0.000029  1
  Fe  Fe7  1  0.130227  0.631373  0.208547  1
  Fe  Fe8  1  0.631373  0.130227  0.208547  1
  Fe  Fe9  1  0.621668  0.621668  0.045378  1
  Fe  Fe10  1  0.236215  0.236215  0.421163  1
  Fe  Fe11  1  0.125227  0.625971  0.540887  1
  Fe  Fe12  1  0.625971  0.125228  0.540887  1
  Fe  Fe13  1  0.234980  0.234980  0.752099  1
  Fe  Fe14  1  0.017449  0.017448  0.327779  1
  Fe  Fe15  1  0.125487  0.616141  0.874806  1
  Fe  Fe16  1  0.616141  0.125487  0.874806  1
  Fe  Fe17  1  0.011201  0.011201  0.663870  1
  O  O18  1  0.388894  0.388894  0.128493  1
  O  O19  1  0.383590  0.843591  0.129645  1
  O  O20  1  0.372804  0.372804  0.290422  1
  O  O21  1  0.843590  0.383590  0.129645  1
  O  O22  1  0.408906  0.876404  0.288146  1
  O  O23  1  0.359933  0.359933  0.469279  1
  O  O24  1  0.876405  0.408905  0.288146  1
  O  O25  1  0.877208  0.877208  0.129744  1
  O  O26  1  0.383961  0.842133  0.461681  1
  O  O27  1  0.365649  0.365649  0.621699  1
  O  O28  1  0.842133  0.383961  0.461681  1
  O  O29  1  0.890084  0.890084  0.282484  1
  O  O30  1  0.405909  0.866927  0.621596  1
  O  O31  1  0.356221  0.356221  0.801731  1
  O  O32  1  0.866927  0.405910  0.621596  1
  O  O33  1  0.886858  0.886859  0.459898  1
  O  O34  1  0.372104  0.843974  0.793342  1
  O  O35  1  0.382472  0.382471  0.947911  1
  O  O36  1  0.843974  0.372104  0.793342  1
  O  O37  1  0.890672  0.890672  0.613743  1
  O  O38  1  0.396505  0.869078  0.956608  1
  O  O39  1  0.870790  0.870791  0.796495  1
  O  O40  1  0.869078  0.396505  0.956608  1
  O  O41  1  0.865664  0.865664  0.956131  1
