# generated using pymatgen
data_Fe3Mo3N
_symmetry_space_group_name_H-M   'P 1'
_cell_length_a   7.80329301
_cell_length_b   7.80329301
_cell_length_c   7.80329301
_cell_angle_alpha   60.00000000
_cell_angle_beta   60.00000000
_cell_angle_gamma   60.00000000
_symmetry_Int_Tables_number   1
_chemical_formula_structural   Fe3Mo3N
_chemical_formula_sum   'Fe12 Mo12 N4'
_cell_volume   335.98411573
_cell_formula_units_Z   4
loop_
 _symmetry_equiv_pos_site_id
 _symmetry_equiv_pos_as_xyz
  1  'x, y, z'
loop_
 _atom_site_type_symbol
 _atom_site_label
 _atom_site_symmetry_multiplicity
 _atom_site_fract_x
 _atom_site_fract_y
 _atom_site_fract_z
 _atom_site_occupancy
  Fe  Fe0  1  -0.000000  0.000000  0.500000  1
  Fe  Fe1  1  -0.000000  0.500000  0.000000  1
  Fe  Fe2  1  0.500000  0.000000  0.000000  1
  Fe  Fe3  1  -0.000000  0.000000  0.000000  1
  Fe  Fe4  1  0.202048  0.202048  0.893856  1
  Fe  Fe5  1  0.202048  0.893856  0.202048  1
  Fe  Fe6  1  0.893856  0.202048  0.202048  1
  Fe  Fe7  1  0.202048  0.202048  0.202048  1
  Fe  Fe8  1  0.797952  0.797952  0.106144  1
  Fe  Fe9  1  0.797952  0.106144  0.797952  1
  Fe  Fe10  1  0.106144  0.797952  0.797952  1
  Fe  Fe11  1  0.797952  0.797952  0.797952  1
  Mo  Mo12  1  0.422779  0.827221  0.827221  1
  Mo  Mo13  1  0.827221  0.422779  0.422779  1
  Mo  Mo14  1  0.827221  0.422779  0.827221  1
  Mo  Mo15  1  0.422779  0.827221  0.422779  1
  Mo  Mo16  1  0.827221  0.827221  0.422779  1
  Mo  Mo17  1  0.422779  0.422779  0.827221  1
  Mo  Mo18  1  0.577221  0.172779  0.172779  1
  Mo  Mo19  1  0.172779  0.577221  0.577221  1
  Mo  Mo20  1  0.172779  0.577221  0.172779  1
  Mo  Mo21  1  0.577221  0.172779  0.577221  1
  Mo  Mo22  1  0.172779  0.172779  0.577221  1
  Mo  Mo23  1  0.577221  0.577221  0.172779  1
  N  N24  1  0.500000  0.500000  0.000000  1
  N  N25  1  0.500000  0.000000  0.500000  1
  N  N26  1  -0.000000  0.500000  0.500000  1
  N  N27  1  0.500000  0.500000  0.500000  1
