# generated using pymatgen
data_Fe6W6C
_symmetry_space_group_name_H-M   'P 1'
_cell_length_a   7.72672033
_cell_length_b   7.72678488
_cell_length_c   7.72671067
_cell_angle_alpha   59.99921034
_cell_angle_beta   59.99890842
_cell_angle_gamma   59.99927768
_symmetry_Int_Tables_number   1
_chemical_formula_structural   Fe6W6C
_chemical_formula_sum   'Fe12 W12 C2'
_cell_volume   326.18585314
_cell_formula_units_Z   2
loop_
 _symmetry_equiv_pos_site_id
 _symmetry_equiv_pos_as_xyz
  1  'x, y, z'
loop_
 _atom_site_type_symbol
 _atom_site_label
 _atom_site_symmetry_multiplicity
 _atom_site_fract_x
 _atom_site_fract_y
 _atom_site_fract_z
 _atom_site_occupancy
  Fe  Fe0  1  0.703866  0.703862  0.703871  1
  Fe  Fe1  1  0.296116  0.296134  0.296117  1
  Fe  Fe2  1  0.296111  0.611640  0.296111  1
  Fe  Fe3  1  0.611634  0.296124  0.296108  1
  Fe  Fe4  1  0.703888  0.703884  0.388346  1
  Fe  Fe5  1  0.388340  0.703884  0.703893  1
  Fe  Fe6  1  0.296104  0.296121  0.611644  1
  Fe  Fe7  1  0.499992  0.500002  -0.000004  1
  Fe  Fe8  1  0.703877  0.388370  0.703882  1
  Fe  Fe9  1  0.500004  0.500013  0.500007  1
  Fe  Fe10  1  0.499997  -0.000013  0.500002  1
  Fe  Fe11  1  0.000003  0.499999  0.499993  1
  W  W12  1  0.323312  0.323320  0.926693  1
  W  W13  1  0.323303  0.926681  0.926695  1
  W  W14  1  0.073320  0.676685  0.073312  1
  W  W15  1  0.676690  0.676694  0.073321  1
  W  W16  1  0.073319  0.073304  0.676690  1
  W  W17  1  0.926700  0.926679  0.323303  1
  W  W18  1  0.676695  0.073313  0.676698  1
  W  W19  1  0.323315  0.926686  0.323317  1
  W  W20  1  0.073326  0.676692  0.676690  1
  W  W21  1  0.926693  0.323305  0.926686  1
  W  W22  1  0.926699  0.323317  0.323311  1
  W  W23  1  0.676690  0.073306  0.073313  1
  C  C24  1  0.875003  0.875000  0.875002  1
  C  C25  1  0.125001  0.124999  0.125000  1
