# generated using pymatgen
data_Ce6Y2O15
_symmetry_space_group_name_H-M   'P 1'
_cell_length_a   9.43533696
_cell_length_b   9.43576082
_cell_length_c   9.43533696
_cell_angle_alpha   109.49168193
_cell_angle_beta   109.38558225
_cell_angle_gamma   109.53461024
_symmetry_Int_Tables_number   1
_chemical_formula_structural   Ce6Y2O15
_chemical_formula_sum   'Ce12 Y4 O30'
_cell_volume   646.66426002
_cell_formula_units_Z   2
loop_
 _symmetry_equiv_pos_site_id
 _symmetry_equiv_pos_as_xyz
  1  'x, y, z'
loop_
 _atom_site_type_symbol
 _atom_site_label
 _atom_site_symmetry_multiplicity
 _atom_site_fract_x
 _atom_site_fract_y
 _atom_site_fract_z
 _atom_site_occupancy
  Ce  Ce0  1  0.992686  0.249495  0.248196  1
  Ce  Ce1  1  0.749930  0.492531  0.267397  1
  Ce  Ce2  1  0.751413  0.003876  0.750664  1
  Ce  Ce3  1  0.501490  0.499484  0.504946  1
  Ce  Ce4  1  0.505580  0.734492  0.248164  1
  Ce  Ce5  1  0.994537  0.999484  0.497993  1
  Ce  Ce6  1  0.486328  0.234492  0.728912  1
  Ce  Ce7  1  0.246348  0.745378  0.495874  1
  Ce  Ce8  1  0.249505  0.245378  0.999030  1
  Ce  Ce9  1  0.225134  0.992531  0.242601  1
  Ce  Ce10  1  0.253213  0.503876  0.752463  1
  Ce  Ce11  1  0.001300  0.749495  0.756808  1
  Y  Y12  1  0.501053  0.005539  0.981095  1
  Y  Y13  1  0.745108  0.771284  0.000431  1
  Y  Y14  1  0.770851  0.271284  0.526176  1
  Y  Y15  1  0.024444  0.505539  0.004486  1
  O  O16  1  0.989809  0.006089  0.251675  1
  O  O17  1  0.983366  0.499034  0.235249  1
  O  O18  1  0.734659  0.999777  0.485356  1
  O  O19  1  0.978607  0.735127  0.004915  1
  O  O20  1  0.730212  0.235127  0.256520  1
  O  O21  1  0.500576  0.489995  0.256901  1
  O  O22  1  0.490337  0.220711  0.474623  1
  O  O23  1  0.746087  0.720711  0.230373  1
  O  O24  1  0.749689  0.010120  0.993492  1
  O  O25  1  0.751630  0.278521  0.777361  1
  O  O26  1  0.501160  0.778521  0.026891  1
  O  O27  1  0.754414  0.506089  0.516280  1
  O  O28  1  0.262009  0.494435  0.002520  1
  O  O29  1  0.241345  0.246453  0.249095  1
  O  O30  1  0.491914  0.994435  0.732426  1
  O  O31  1  0.008118  0.257694  0.507461  1
  O  O32  1  0.750233  0.757694  0.749576  1
  O  O33  1  0.276967  0.771258  0.250407  1
  O  O34  1  0.249658  0.499256  0.498641  1
  O  O35  1  0.520851  0.271258  0.994291  1
  O  O36  1  0.263784  0.999034  0.015669  1
  O  O37  1  0.498291  0.741000  0.497187  1
  O  O38  1  0.243813  0.241000  0.742709  1
  O  O39  1  0.514421  0.499777  0.765117  1
  O  O40  1  0.233095  0.989995  0.489419  1
  O  O41  1  0.250800  0.748453  0.741794  1
  O  O42  1  0.006658  0.248453  0.997652  1
  O  O43  1  0.016628  0.510120  0.760431  1
  O  O44  1  0.997357  0.746453  0.505108  1
  O  O45  1  0.000616  0.999256  0.749598  1
