# generated using pymatgen
data_Fe2W2C
_symmetry_space_group_name_H-M   'P 1'
_cell_length_a   7.87592365
_cell_length_b   7.87592388
_cell_length_c   7.87592396
_cell_angle_alpha   60.00000385
_cell_angle_beta   60.00000290
_cell_angle_gamma   60.00000046
_symmetry_Int_Tables_number   1
_chemical_formula_structural   Fe2W2C
_chemical_formula_sum   'Fe12 W12 C6'
_cell_volume   345.45346070
_cell_formula_units_Z   6
loop_
 _symmetry_equiv_pos_site_id
 _symmetry_equiv_pos_as_xyz
  1  'x, y, z'
loop_
 _atom_site_type_symbol
 _atom_site_label
 _atom_site_symmetry_multiplicity
 _atom_site_fract_x
 _atom_site_fract_y
 _atom_site_fract_z
 _atom_site_occupancy
  W  W0  1  0.675193  0.074807  0.074807  1
  W  W1  1  0.074807  0.675193  0.074807  1
  W  W2  1  0.074807  0.074807  0.675193  1
  W  W3  1  0.675193  0.675193  0.074807  1
  W  W4  1  0.675193  0.074807  0.675193  1
  W  W5  1  0.074807  0.675193  0.675193  1
  W  W6  1  0.324807  0.925193  0.925193  1
  W  W7  1  0.925193  0.324807  0.925193  1
  W  W8  1  0.925193  0.925193  0.324807  1
  W  W9  1  0.324807  0.324807  0.925193  1
  W  W10  1  0.324807  0.925193  0.324807  1
  W  W11  1  0.925193  0.324807  0.324807  1
  Fe  Fe12  1  0.700893  0.700893  0.700893  1
  Fe  Fe13  1  0.397322  0.700893  0.700893  1
  Fe  Fe14  1  0.700893  0.397322  0.700893  1
  Fe  Fe15  1  0.700893  0.700893  0.397322  1
  Fe  Fe16  1  0.299107  0.299107  0.299107  1
  Fe  Fe17  1  0.602678  0.299107  0.299107  1
  Fe  Fe18  1  0.299107  0.602678  0.299107  1
  Fe  Fe19  1  0.299107  0.299107  0.602678  1
  Fe  Fe20  1  0.500000  0.500000  0.500000  1
  Fe  Fe21  1  0.000000  0.500000  0.500000  1
  Fe  Fe22  1  0.500000  0.000000  0.500000  1
  Fe  Fe23  1  0.500000  0.500000  0.000000  1
  C  C24  1  0.000000  0.000000  0.000000  1
  C  C25  1  0.500000  0.000000  0.000000  1
  C  C26  1  0.000000  0.500000  0.000000  1
  C  C27  1  0.000000  0.000000  0.500000  1
  C  C28  1  0.875000  0.875000  0.875000  1
  C  C29  1  0.125000  0.125000  0.125000  1
