# generated using pymatgen
data_Fe3W3N
_symmetry_space_group_name_H-M   'P 1'
_cell_length_a   11.03400480
_cell_length_b   11.03400480
_cell_length_c   11.03400480
_cell_angle_alpha   90.00000000
_cell_angle_beta   90.00000000
_cell_angle_gamma   90.00000000
_symmetry_Int_Tables_number   1
_chemical_formula_structural   Fe3W3N
_chemical_formula_sum   'Fe48 W48 N16'
_cell_volume   1343.38194049
_cell_formula_units_Z   16
loop_
 _symmetry_equiv_pos_site_id
 _symmetry_equiv_pos_as_xyz
  1  'x, y, z'
loop_
 _atom_site_type_symbol
 _atom_site_label
 _atom_site_symmetry_multiplicity
 _atom_site_fract_x
 _atom_site_fract_y
 _atom_site_fract_z
 _atom_site_occupancy
  Fe  Fe0  1  0.625000  0.875000  0.375000  1
  Fe  Fe1  1  0.375000  0.875000  0.625000  1
  Fe  Fe2  1  0.125000  0.625000  0.625000  1
  Fe  Fe3  1  0.875000  0.625000  0.375000  1
  Fe  Fe4  1  0.578183  0.921817  0.578183  1
  Fe  Fe5  1  0.828183  0.828183  0.328183  1
  Fe  Fe6  1  0.828183  0.671817  0.171817  1
  Fe  Fe7  1  0.671817  0.671817  0.328183  1
  Fe  Fe8  1  0.671817  0.828183  0.171817  1
  Fe  Fe9  1  0.421817  0.921817  0.421817  1
  Fe  Fe10  1  0.578183  0.078183  0.421817  1
  Fe  Fe11  1  0.421817  0.078183  0.578183  1
  Fe  Fe12  1  0.625000  0.375000  0.875000  1
  Fe  Fe13  1  0.375000  0.375000  0.125000  1
  Fe  Fe14  1  0.125000  0.125000  0.125000  1
  Fe  Fe15  1  0.875000  0.125000  0.875000  1
  Fe  Fe16  1  0.578183  0.421817  0.078183  1
  Fe  Fe17  1  0.828183  0.328183  0.828183  1
  Fe  Fe18  1  0.828183  0.171817  0.671817  1
  Fe  Fe19  1  0.671817  0.171817  0.828183  1
  Fe  Fe20  1  0.671817  0.328183  0.671817  1
  Fe  Fe21  1  0.421817  0.421817  0.921817  1
  Fe  Fe22  1  0.578183  0.578183  0.921817  1
  Fe  Fe23  1  0.421817  0.578183  0.078183  1
  Fe  Fe24  1  0.125000  0.875000  0.875000  1
  Fe  Fe25  1  0.875000  0.875000  0.125000  1
  Fe  Fe26  1  0.625000  0.625000  0.125000  1
  Fe  Fe27  1  0.375000  0.625000  0.875000  1
  Fe  Fe28  1  0.078183  0.921817  0.078183  1
  Fe  Fe29  1  0.328183  0.828183  0.828183  1
  Fe  Fe30  1  0.328183  0.671817  0.671817  1
  Fe  Fe31  1  0.171817  0.671817  0.828183  1
  Fe  Fe32  1  0.171817  0.828183  0.671817  1
  Fe  Fe33  1  0.921817  0.921817  0.921817  1
  Fe  Fe34  1  0.078183  0.078183  0.921817  1
  Fe  Fe35  1  0.921817  0.078183  0.078183  1
  Fe  Fe36  1  0.125000  0.375000  0.375000  1
  Fe  Fe37  1  0.875000  0.375000  0.625000  1
  Fe  Fe38  1  0.625000  0.125000  0.625000  1
  Fe  Fe39  1  0.375000  0.125000  0.375000  1
  Fe  Fe40  1  0.078183  0.421817  0.578183  1
  Fe  Fe41  1  0.328183  0.328183  0.328183  1
  Fe  Fe42  1  0.328183  0.171817  0.171817  1
  Fe  Fe43  1  0.171817  0.171817  0.328183  1
  Fe  Fe44  1  0.171817  0.328183  0.171817  1
  Fe  Fe45  1  0.921817  0.421817  0.421817  1
  Fe  Fe46  1  0.078183  0.578183  0.421817  1
  Fe  Fe47  1  0.921817  0.578183  0.578183  1
  W  W48  1  0.046777  0.750000  0.250000  1
  W  W49  1  0.796777  -0.000000  0.500000  1
  W  W50  1  0.750000  0.750000  0.546777  1
  W  W51  1  0.250000  0.953223  0.250000  1
  W  W52  1  0.750000  0.046777  0.250000  1
  W  W53  1  0.750000  0.750000  0.953223  1
  W  W54  1  0.500000  -0.000000  0.203223  1
  W  W55  1  0.500000  -0.000000  0.796777  1
  W  W56  1  0.203223  -0.000000  0.500000  1
  W  W57  1  0.000000  0.796777  0.500000  1
  W  W58  1  0.500000  0.703223  0.500000  1
  W  W59  1  0.453223  0.750000  0.250000  1
  W  W60  1  0.046777  0.250000  0.750000  1
  W  W61  1  0.796777  0.500000  0.000000  1
  W  W62  1  0.750000  0.250000  0.046777  1
  W  W63  1  0.250000  0.453223  0.750000  1
  W  W64  1  0.750000  0.546777  0.750000  1
  W  W65  1  0.750000  0.250000  0.453223  1
  W  W66  1  0.500000  0.500000  0.703223  1
  W  W67  1  0.500000  0.500000  0.296777  1
  W  W68  1  0.203223  0.500000  0.000000  1
  W  W69  1  0.000000  0.296777  0.000000  1
  W  W70  1  0.500000  0.203223  0.000000  1
  W  W71  1  0.453223  0.250000  0.750000  1
  W  W72  1  0.546777  0.750000  0.750000  1
  W  W73  1  0.296777  -0.000000  0.000000  1
  W  W74  1  0.250000  0.750000  0.046777  1
  W  W75  1  0.750000  0.953223  0.750000  1
  W  W76  1  0.250000  0.046777  0.750000  1
  W  W77  1  0.250000  0.750000  0.453223  1
  W  W78  1  0.000000  -0.000000  0.703223  1
  W  W79  1  0.000000  -0.000000  0.296777  1
  W  W80  1  0.703223  -0.000000  0.000000  1
  W  W81  1  0.500000  0.796777  0.000000  1
  W  W82  1  0.000000  0.703223  0.000000  1
  W  W83  1  0.953223  0.750000  0.750000  1
  W  W84  1  0.546777  0.250000  0.250000  1
  W  W85  1  0.296777  0.500000  0.500000  1
  W  W86  1  0.250000  0.250000  0.546777  1
  W  W87  1  0.750000  0.453223  0.250000  1
  W  W88  1  0.250000  0.546777  0.250000  1
  W  W89  1  0.250000  0.250000  0.953223  1
  W  W90  1  0.000000  0.500000  0.203223  1
  W  W91  1  0.000000  0.500000  0.796777  1
  W  W92  1  0.703223  0.500000  0.500000  1
  W  W93  1  0.500000  0.296777  0.500000  1
  W  W94  1  0.000000  0.203223  0.500000  1
  W  W95  1  0.953223  0.250000  0.250000  1
  N  N96  1  0.625000  0.875000  0.875000  1
  N  N97  1  0.375000  0.875000  0.125000  1
  N  N98  1  0.625000  0.625000  0.625000  1
  N  N99  1  0.375000  0.625000  0.375000  1
  N  N100  1  0.625000  0.375000  0.375000  1
  N  N101  1  0.375000  0.375000  0.625000  1
  N  N102  1  0.625000  0.125000  0.125000  1
  N  N103  1  0.375000  0.125000  0.875000  1
  N  N104  1  0.125000  0.875000  0.375000  1
  N  N105  1  0.875000  0.875000  0.625000  1
  N  N106  1  0.125000  0.625000  0.125000  1
  N  N107  1  0.875000  0.625000  0.875000  1
  N  N108  1  0.125000  0.375000  0.875000  1
  N  N109  1  0.875000  0.375000  0.125000  1
  N  N110  1  0.125000  0.125000  0.625000  1
  N  N111  1  0.875000  0.125000  0.375000  1
