# generated using pymatgen
data_Fe13Cu5O24
_symmetry_space_group_name_H-M   'P 1'
_cell_length_a   6.01039520
_cell_length_b   6.06777025
_cell_length_c   13.39044854
_cell_angle_alpha   103.47708571
_cell_angle_beta   102.81761667
_cell_angle_gamma   88.39286547
_symmetry_Int_Tables_number   1
_chemical_formula_structural   Fe13Cu5O24
_chemical_formula_sum   'Fe13 Cu5 O24'
_cell_volume   462.92009747
_cell_formula_units_Z   1
loop_
 _symmetry_equiv_pos_site_id
 _symmetry_equiv_pos_as_xyz
  1  'x, y, z'
loop_
 _atom_site_type_symbol
 _atom_site_label
 _atom_site_symmetry_multiplicity
 _atom_site_fract_x
 _atom_site_fract_y
 _atom_site_fract_z
 _atom_site_occupancy
  Fe  Fe0  1  0.993699  0.006811  0.002610  1
  Fe  Fe1  1  0.589412  0.077036  0.164080  1
  Fe  Fe2  1  0.124235  0.378969  0.250799  1
  Fe  Fe3  1  0.120080  0.873400  0.247690  1
  Fe  Fe4  1  0.662197  0.654998  0.336645  1
  Fe  Fe5  1  0.457744  0.210555  0.419745  1
  Fe  Fe6  1  0.269188  0.764071  0.499657  1
  Fe  Fe7  1  0.792282  0.041831  0.583380  1
  Fe  Fe8  1  0.314708  0.319469  0.666885  1
  Fe  Fe9  1  0.125282  0.872813  0.747223  1
  Fe  Fe10  1  0.921414  0.427609  0.830301  1
  Fe  Fe11  1  0.462481  0.209094  0.918147  1
  Fe  Fe12  1  0.459423  0.703825  0.915905  1
  Cu  Cu13  1  0.790415  0.540818  0.083005  1
  Cu  Cu14  1  0.292081  0.541595  0.082956  1
  Cu  Cu15  1  0.957792  0.210823  0.417365  1
  Cu  Cu16  1  0.791655  0.541888  0.584079  1
  Cu  Cu17  1  0.625982  0.872039  0.749510  1
  O  O18  1  0.559676  0.285976  0.075851  1
  O  O19  1  0.538980  0.774987  0.076123  1
  O  O20  1  0.043853  0.308098  0.090026  1
  O  O21  1  0.024286  0.800207  0.090206  1
  O  O22  1  0.355816  0.621243  0.244551  1
  O  O23  1  0.900957  0.636949  0.260824  1
  O  O24  1  0.360801  0.122060  0.254028  1
  O  O25  1  0.895179  0.135678  0.256428  1
  O  O26  1  0.234107  0.461250  0.411216  1
  O  O27  1  0.205216  0.978555  0.409009  1
  O  O28  1  0.684836  0.956010  0.424601  1
  O  O29  1  0.707669  0.435224  0.422204  1
  O  O30  1  0.530515  0.263883  0.578587  1
  O  O31  1  0.013460  0.289504  0.576468  1
  O  O32  1  0.571063  0.794504  0.590923  1
  O  O33  1  0.052392  0.819969  0.588284  1
  O  O34  1  0.876342  0.647209  0.745358  1
  O  O35  1  0.898312  0.127028  0.742619  1
  O  O36  1  0.378184  0.103255  0.756937  1
  O  O37  1  0.349637  0.622851  0.755609  1
  O  O38  1  0.222513  0.960117  0.912259  1
  O  O39  1  0.688008  0.946452  0.909591  1
  O  O40  1  0.680992  0.447825  0.905712  1
  O  O41  1  0.227134  0.463520  0.922602  1
