# generated using pymatgen
data_Fe14Ni11O32
_symmetry_space_group_name_H-M   'P 1'
_cell_length_a   6.11211927
_cell_length_b   5.92610115
_cell_length_c   23.78641114
_cell_angle_alpha   60.18364679
_cell_angle_beta   60.85961603
_cell_angle_gamma   61.27042317
_symmetry_Int_Tables_number   1
_chemical_formula_structural   Fe14Ni11O32
_chemical_formula_sum   'Fe14 Ni11 O32'
_cell_volume   619.70963023
_cell_formula_units_Z   1
loop_
 _symmetry_equiv_pos_site_id
 _symmetry_equiv_pos_as_xyz
  1  'x, y, z'
loop_
 _atom_site_type_symbol
 _atom_site_label
 _atom_site_symmetry_multiplicity
 _atom_site_fract_x
 _atom_site_fract_y
 _atom_site_fract_z
 _atom_site_occupancy
  Fe  Fe0  1  0.014305  0.992490  0.247487  1
  Fe  Fe1  1  0.234123  0.258555  0.063775  1
  Fe  Fe2  1  0.113774  0.634414  0.153668  1
  Fe  Fe3  1  0.259289  0.253022  0.310809  1
  Fe  Fe4  1  0.094226  0.975923  0.489054  1
  Fe  Fe5  1  0.629541  0.621080  0.030051  1
  Fe  Fe6  1  0.624212  0.629287  0.156314  1
  Fe  Fe7  1  0.173018  0.283815  0.565385  1
  Fe  Fe8  1  0.658678  0.626991  0.397184  1
  Fe  Fe9  1  0.078636  0.976689  0.742583  1
  Fe  Fe10  1  0.150319  0.259006  0.833251  1
  Fe  Fe11  1  0.623446  0.624609  0.656775  1
  Fe  Fe12  1  0.105685  0.628105  0.909613  1
  Fe  Fe13  1  0.606057  0.631550  0.911145  1
  Ni  Ni14  1  0.621291  0.122007  0.156601  1
  Ni  Ni15  1  0.142319  0.622953  0.403642  1
  Ni  Ni16  1  0.652771  0.125795  0.399772  1
  Ni  Ni17  1  0.629875  0.624639  0.279340  1
  Ni  Ni18  1  0.633625  0.119223  0.531631  1
  Ni  Ni19  1  0.123418  0.623707  0.657834  1
  Ni  Ni20  1  0.625571  0.124390  0.656784  1
  Ni  Ni21  1  0.627154  0.626917  0.529833  1
  Ni  Ni22  1  0.614422  0.128817  0.782472  1
  Ni  Ni23  1  0.597626  0.124891  0.913727  1
  Ni  Ni24  1  0.627529  0.621701  0.782989  1
  O  O25  1  0.372558  0.392007  0.094061  1
  O  O26  1  0.380102  0.387697  0.211558  1
  O  O27  1  0.377003  0.859285  0.094115  1
  O  O28  1  0.850025  0.389499  0.093866  1
  O  O29  1  0.391187  0.862370  0.217184  1
  O  O30  1  0.386989  0.374093  0.345969  1
  O  O31  1  0.875315  0.384186  0.215771  1
  O  O32  1  0.393594  0.369244  0.468677  1
  O  O33  1  0.393025  0.852967  0.346371  1
  O  O34  1  0.850817  0.852990  0.107684  1
  O  O35  1  0.881004  0.863842  0.215652  1
  O  O36  1  0.871771  0.379538  0.343261  1
  O  O37  1  0.372481  0.372186  0.593655  1
  O  O38  1  0.455525  0.852672  0.459027  1
  O  O39  1  0.342235  0.360672  0.731406  1
  O  O40  1  0.878678  0.369208  0.468390  1
  O  O41  1  0.889045  0.856392  0.346438  1
  O  O42  1  0.367001  0.890731  0.592184  1
  O  O43  1  0.887077  0.872953  0.469405  1
  O  O44  1  0.811216  0.397858  0.599289  1
  O  O45  1  0.439358  0.850003  0.714855  1
  O  O46  1  0.367088  0.373954  0.846668  1
  O  O47  1  0.356531  0.401368  0.965030  1
  O  O48  1  0.875124  0.363634  0.721741  1
  O  O49  1  0.371194  0.871117  0.848764  1
  O  O50  1  0.893405  0.884036  0.588517  1
  O  O51  1  0.787999  0.398532  0.856292  1
  O  O52  1  0.869262  0.879274  0.720164  1
  O  O53  1  0.424615  0.854230  0.963774  1
  O  O54  1  0.847563  0.429510  0.959765  1
  O  O55  1  0.877578  0.872928  0.839691  1
  O  O56  1  0.852724  0.870447  0.961555  1
