# generated using pymatgen
data_Fe2CuO4
_symmetry_space_group_name_H-M   'P 1'
_cell_length_a   6.06659272
_cell_length_b   6.06659266
_cell_length_c   23.59771898
_cell_angle_alpha   61.00514895
_cell_angle_beta   61.00514929
_cell_angle_gamma   58.81937561
_symmetry_Int_Tables_number   1
_chemical_formula_structural   Fe2CuO4
_chemical_formula_sum   'Fe16 Cu8 O32'
_cell_volume   617.36569387
_cell_formula_units_Z   8
loop_
 _symmetry_equiv_pos_site_id
 _symmetry_equiv_pos_as_xyz
  1  'x, y, z'
loop_
 _atom_site_type_symbol
 _atom_site_label
 _atom_site_symmetry_multiplicity
 _atom_site_fract_x
 _atom_site_fract_y
 _atom_site_fract_z
 _atom_site_occupancy
  Fe  Fe0  1  0.999483  0.999483  0.000804  1
  Fe  Fe1  1  0.008197  0.008197  0.247912  1
  Fe  Fe2  1  0.130010  0.621138  0.156826  1
  Fe  Fe3  1  0.619120  0.619120  0.034754  1
  Fe  Fe4  1  0.019670  0.019670  0.494194  1
  Fe  Fe5  1  0.621138  0.130010  0.156826  1
  Fe  Fe6  1  0.131661  0.634111  0.405040  1
  Fe  Fe7  1  0.011741  0.011741  0.747427  1
  Fe  Fe8  1  0.627214  0.627214  0.281402  1
  Fe  Fe9  1  0.235974  0.235974  0.566170  1
  Fe  Fe10  1  0.634111  0.131661  0.405040  1
  Fe  Fe11  1  0.127468  0.626518  0.655051  1
  Fe  Fe12  1  0.232745  0.232745  0.815173  1
  Fe  Fe13  1  0.626518  0.127468  0.655051  1
  Fe  Fe14  1  0.122916  0.614070  0.906702  1
  Fe  Fe15  1  0.614070  0.122916  0.906702  1
  Cu  Cu16  1  0.243771  0.243771  0.064020  1
  Cu  Cu17  1  0.246338  0.246338  0.315020  1
  Cu  Cu18  1  0.620226  0.620226  0.157452  1
  Cu  Cu19  1  0.629998  0.629998  0.404083  1
  Cu  Cu20  1  0.627575  0.627575  0.529619  1
  Cu  Cu21  1  0.625199  0.625199  0.656847  1
  Cu  Cu22  1  0.622552  0.622552  0.781812  1
  Cu  Cu23  1  0.617154  0.617154  0.907495  1
  O  O24  1  0.386380  0.386380  0.095252  1
  O  O25  1  0.380316  0.380316  0.213347  1
  O  O26  1  0.372869  0.841689  0.098482  1
  O  O27  1  0.841689  0.372869  0.098482  1
  O  O28  1  0.398563  0.876367  0.216561  1
  O  O29  1  0.395354  0.395354  0.343550  1
  O  O30  1  0.362650  0.362650  0.468659  1
  O  O31  1  0.391254  0.846722  0.347347  1
  O  O32  1  0.870847  0.870847  0.098546  1
  O  O33  1  0.876367  0.398563  0.216561  1
  O  O34  1  0.846722  0.391254  0.347347  1
  O  O35  1  0.865316  0.865316  0.219469  1
  O  O36  1  0.417116  0.876967  0.461570  1
  O  O37  1  0.358894  0.358894  0.601655  1
  O  O38  1  0.362676  0.362676  0.717297  1
  O  O39  1  0.382270  0.839650  0.596428  1
  O  O40  1  0.894834  0.894834  0.343971  1
  O  O41  1  0.876967  0.417116  0.461570  1
  O  O42  1  0.839650  0.382270  0.596428  1
  O  O43  1  0.895771  0.895771  0.459845  1
  O  O44  1  0.406710  0.867444  0.716065  1
  O  O45  1  0.357544  0.357544  0.850719  1
  O  O46  1  0.372294  0.372294  0.963002  1
  O  O47  1  0.371211  0.840389  0.847536  1
  O  O48  1  0.889445  0.889445  0.593337  1
  O  O49  1  0.867444  0.406710  0.716065  1
  O  O50  1  0.887614  0.887614  0.711314  1
  O  O51  1  0.840389  0.371211  0.847536  1
  O  O52  1  0.394773  0.864575  0.967376  1
  O  O53  1  0.864575  0.394773  0.967376  1
  O  O54  1  0.876328  0.876328  0.846681  1
  O  O55  1  0.860321  0.860321  0.969204  1
