# generated using pymatgen
data_Fe2(MoO4)3
_symmetry_space_group_name_H-M   'P 1'
_cell_length_a   9.41047909
_cell_length_b   16.00988728
_cell_length_c   16.07196391
_cell_angle_alpha   109.34085222
_cell_angle_beta   90.00000000
_cell_angle_gamma   90.00000000
_symmetry_Int_Tables_number   1
_chemical_formula_structural   Fe2(MoO4)3
_chemical_formula_sum   'Fe16 Mo24 O96'
_cell_volume   2284.76114370
_cell_formula_units_Z   8
loop_
 _symmetry_equiv_pos_site_id
 _symmetry_equiv_pos_as_xyz
  1  'x, y, z'
loop_
 _atom_site_type_symbol
 _atom_site_label
 _atom_site_symmetry_multiplicity
 _atom_site_fract_x
 _atom_site_fract_y
 _atom_site_fract_z
 _atom_site_occupancy
  Fe  Fe0  1  0.466793  0.812147  0.679841  1
  Fe  Fe1  1  0.518216  0.058797  0.415650  1
  Fe  Fe2  1  0.018216  0.941203  0.584350  1
  Fe  Fe3  1  0.984443  0.561466  0.415703  1
  Fe  Fe4  1  0.541036  0.576944  0.954005  1
  Fe  Fe5  1  0.027213  0.816892  0.184271  1
  Fe  Fe6  1  0.474846  0.317292  0.185876  1
  Fe  Fe7  1  0.041036  0.423056  0.045995  1
  Fe  Fe8  1  0.460670  0.926075  0.045687  1
  Fe  Fe9  1  0.974846  0.682708  0.814124  1
  Fe  Fe10  1  0.960669  0.073925  0.954313  1
  Fe  Fe11  1  0.036344  0.311709  0.681792  1
  Fe  Fe12  1  0.527213  0.183108  0.815729  1
  Fe  Fe13  1  0.536344  0.688291  0.318208  1
  Fe  Fe14  1  0.966793  0.187853  0.320159  1
  Fe  Fe15  1  0.484443  0.438534  0.584297  1
  Mo  Mo16  1  0.886006  0.983387  0.384205  1
  Mo  Mo17  1  0.112672  0.360121  0.248845  1
  Mo  Mo18  1  0.612672  0.639879  0.751155  1
  Mo  Mo19  1  0.128513  0.027575  0.138036  1
  Mo  Mo20  1  0.387220  0.860308  0.249005  1
  Mo  Mo21  1  0.374155  0.524663  0.135341  1
  Mo  Mo22  1  0.253482  0.242740  0.488054  1
  Mo  Mo23  1  0.132479  0.887711  0.786759  1
  Mo  Mo24  1  0.746403  0.266766  0.019834  1
  Mo  Mo25  1  0.758100  0.767922  0.018916  1
  Mo  Mo26  1  0.873546  0.612201  0.212982  1
  Mo  Mo27  1  0.386006  0.016613  0.615795  1
  Mo  Mo28  1  0.874155  0.475337  0.864659  1
  Mo  Mo29  1  0.246795  0.745392  0.486847  1
  Mo  Mo30  1  0.628513  0.972425  0.861964  1
  Mo  Mo31  1  0.753482  0.757260  0.511946  1
  Mo  Mo32  1  0.887220  0.139692  0.750995  1
  Mo  Mo33  1  0.258100  0.232078  0.981084  1
  Mo  Mo34  1  0.616983  0.486454  0.387100  1
  Mo  Mo35  1  0.246403  0.733234  0.980166  1
  Mo  Mo36  1  0.116983  0.513546  0.612900  1
  Mo  Mo37  1  0.373546  0.387799  0.787018  1
  Mo  Mo38  1  0.632479  0.112289  0.213241  1
  Mo  Mo39  1  0.746795  0.254608  0.513153  1
  O  O40  1  0.214118  0.812298  0.244848  1
  O  O41  1  0.108847  0.243173  0.415759  1
  O  O42  1  0.787106  0.686028  0.754359  1
  O  O43  1  0.893109  0.035695  0.662959  1
  O  O44  1  0.058571  0.417410  0.637307  1
  O  O45  1  0.615338  0.835573  0.003957  1
  O  O46  1  0.195457  0.016653  0.609568  1
  O  O47  1  0.984006  0.291356  0.276659  1
  O  O48  1  0.608847  0.756827  0.584241  1
  O  O49  1  0.646321  0.354419  0.554525  1
  O  O50  1  0.496770  0.528217  0.050866  1
  O  O51  1  0.001613  0.032136  0.056164  1
  O  O52  1  0.118688  0.124626  0.234635  1
  O  O53  1  0.636086  0.159498  0.498154  1
  O  O54  1  0.115338  0.164427  0.996043  1
  O  O55  1  0.120234  0.754667  0.067828  1
  O  O56  1  0.440080  0.394581  0.685452  1
  O  O57  1  0.424419  0.876803  0.145969  1
  O  O58  1  0.572500  0.632954  0.858092  1
  O  O59  1  0.186550  0.247056  0.594337  1
  O  O60  1  0.402741  0.490533  0.874214  1
  O  O61  1  0.439208  0.115757  0.700915  1
  O  O62  1  0.344853  0.174142  0.878935  1
  O  O63  1  0.287106  0.313972  0.245641  1
  O  O64  1  0.155752  0.675554  0.879526  1
  O  O65  1  0.543078  0.488825  0.490874  1
  O  O66  1  0.655752  0.324446  0.120474  1
  O  O67  1  0.445194  0.920370  0.639124  1
  O  O68  1  0.043078  0.511175  0.509126  1
  O  O69  1  0.620234  0.245333  0.932172  1
  O  O70  1  0.072500  0.367046  0.141908  1
  O  O71  1  0.813940  0.248567  0.406939  1
  O  O72  1  0.313040  0.837390  0.976084  1
  O  O73  1  0.501613  0.967864  0.943836  1
  O  O74  1  0.940080  0.605419  0.314548  1
  O  O75  1  0.902741  0.509467  0.125786  1
  O  O76  1  0.463309  0.299154  0.809965  1
  O  O77  1  0.568522  0.095245  0.311029  1
  O  O78  1  0.102002  0.985822  0.879535  1
  O  O79  1  0.387423  0.667395  0.001347  1
  O  O80  1  0.692736  0.663258  0.022657  1
  O  O81  1  0.106503  0.469059  0.328948  1
  O  O82  1  0.694741  0.485856  0.904538  1
  O  O83  1  0.092644  0.934000  0.171857  1
  O  O84  1  0.465779  0.017043  0.514787  1
  O  O85  1  0.319694  0.866687  0.773314  1
  O  O86  1  0.602002  0.014178  0.120465  1
  O  O87  1  0.194741  0.514144  0.095462  1
  O  O88  1  0.883319  0.749653  0.930745  1
  O  O89  1  0.062321  0.612105  0.697799  1
  O  O90  1  0.924419  0.123197  0.854031  1
  O  O91  1  0.388645  0.623103  0.229940  1
  O  O92  1  0.383319  0.250347  0.069255  1
  O  O93  1  0.939208  0.884243  0.299085  1
  O  O94  1  0.862730  0.661615  0.497775  1
  O  O95  1  0.041534  0.795012  0.800830  1
  O  O96  1  0.819694  0.133313  0.226686  1
  O  O97  1  0.714118  0.187702  0.755152  1
  O  O98  1  0.146321  0.645581  0.445475  1
  O  O99  1  0.965779  0.982957  0.485213  1
  O  O100  1  0.813040  0.162610  0.023916  1
  O  O101  1  0.996770  0.471783  0.949134  1
  O  O102  1  0.016682  0.212728  0.730930  1
  O  O103  1  0.313940  0.751433  0.593061  1
  O  O104  1  0.963309  0.700846  0.190035  1
  O  O105  1  0.945194  0.079630  0.360876  1
  O  O106  1  0.068522  0.904755  0.688971  1
  O  O107  1  0.807892  0.487218  0.391474  1
  O  O108  1  0.411571  0.431910  0.170215  1
  O  O109  1  0.887660  0.256436  0.589160  1
  O  O110  1  0.853488  0.856854  0.557568  1
  O  O111  1  0.192736  0.336742  0.977343  1
  O  O112  1  0.186412  0.365917  0.773090  1
  O  O113  1  0.516682  0.787272  0.269070  1
  O  O114  1  0.541534  0.204988  0.199170  1
  O  O115  1  0.307892  0.512782  0.608526  1
  O  O116  1  0.136086  0.840502  0.501846  1
  O  O117  1  0.558571  0.582590  0.362693  1
  O  O118  1  0.592644  0.066000  0.828143  1
  O  O119  1  0.484006  0.708644  0.723341  1
  O  O120  1  0.911571  0.568090  0.829785  1
  O  O121  1  0.686550  0.752944  0.405663  1
  O  O122  1  0.686412  0.634083  0.226910  1
  O  O123  1  0.805658  0.984159  0.906041  1
  O  O124  1  0.387660  0.743564  0.410840  1
  O  O125  1  0.844853  0.825858  0.121065  1
  O  O126  1  0.888645  0.376897  0.770060  1
  O  O127  1  0.393109  0.964305  0.337041  1
  O  O128  1  0.353488  0.143146  0.442432  1
  O  O129  1  0.618688  0.875374  0.765365  1
  O  O130  1  0.305658  0.015841  0.093959  1
  O  O131  1  0.562321  0.387895  0.302201  1
  O  O132  1  0.887423  0.332605  0.998653  1
  O  O133  1  0.606503  0.530941  0.671052  1
  O  O134  1  0.362730  0.338385  0.502225  1
  O  O135  1  0.695457  0.983347  0.390432  1
