# generated using pymatgen
data_Fe2(MoO4)3
_symmetry_space_group_name_H-M   'P 1'
_cell_length_a   9.52468837
_cell_length_b   16.18367177
_cell_length_c   16.24305124
_cell_angle_alpha   109.07820291
_cell_angle_beta   90.00000000
_cell_angle_gamma   90.00000000
_symmetry_Int_Tables_number   1
_chemical_formula_structural   Fe2(MoO4)3
_chemical_formula_sum   'Fe16 Mo24 O96'
_cell_volume   2366.25180189
_cell_formula_units_Z   8
loop_
 _symmetry_equiv_pos_site_id
 _symmetry_equiv_pos_as_xyz
  1  'x, y, z'
loop_
 _atom_site_type_symbol
 _atom_site_label
 _atom_site_symmetry_multiplicity
 _atom_site_fract_x
 _atom_site_fract_y
 _atom_site_fract_z
 _atom_site_occupancy
  Fe  Fe0  1  0.967861  0.685734  0.569959  1
  Fe  Fe1  1  0.031245  0.434574  0.815096  1
  Fe  Fe2  1  0.968751  0.065503  0.683377  1
  Fe  Fe3  1  0.468755  0.934574  0.815096  1
  Fe  Fe4  1  0.965634  0.181294  0.060575  1
  Fe  Fe5  1  0.531245  0.065426  0.184904  1
  Fe  Fe6  1  0.534366  0.681294  0.060575  1
  Fe  Fe7  1  0.034366  0.818706  0.939425  1
  Fe  Fe8  1  0.031249  0.934497  0.316623  1
  Fe  Fe9  1  0.968755  0.565426  0.184904  1
  Fe  Fe10  1  0.465634  0.318706  0.939425  1
  Fe  Fe11  1  0.531249  0.565503  0.683377  1
  Fe  Fe12  1  0.032139  0.314266  0.430041  1
  Fe  Fe13  1  0.532139  0.185734  0.569959  1
  Fe  Fe14  1  0.468751  0.434497  0.316623  1
  Fe  Fe15  1  0.467861  0.814266  0.430041  1
  Mo  Mo16  1  0.746470  0.984629  0.982132  1
  Mo  Mo17  1  0.619203  0.127964  0.771867  1
  Mo  Mo18  1  0.614525  0.767892  0.619875  1
  Mo  Mo19  1  0.610114  0.621961  0.264218  1
  Mo  Mo20  1  0.246470  0.515371  0.017868  1
  Mo  Mo21  1  0.753530  0.484629  0.982132  1
  Mo  Mo22  1  0.254301  0.010485  0.513178  1
  Mo  Mo23  1  0.380148  0.729409  0.873767  1
  Mo  Mo24  1  0.380797  0.872036  0.228133  1
  Mo  Mo25  1  0.389886  0.378039  0.735782  1
  Mo  Mo26  1  0.619852  0.270591  0.126233  1
  Mo  Mo27  1  0.119852  0.229409  0.873767  1
  Mo  Mo28  1  0.110114  0.878039  0.735782  1
  Mo  Mo29  1  0.889886  0.121961  0.264218  1
  Mo  Mo30  1  0.754301  0.489515  0.486822  1
  Mo  Mo31  1  0.114525  0.732108  0.380125  1
  Mo  Mo32  1  0.885475  0.267892  0.619875  1
  Mo  Mo33  1  0.119203  0.372036  0.228133  1
  Mo  Mo34  1  0.253530  0.015371  0.017868  1
  Mo  Mo35  1  0.245699  0.510485  0.513178  1
  Mo  Mo36  1  0.385475  0.232108  0.380125  1
  Mo  Mo37  1  0.745699  0.989515  0.486822  1
  Mo  Mo38  1  0.880797  0.627964  0.771867  1
  Mo  Mo39  1  0.880148  0.770591  0.126233  1
  O  O40  1  0.937511  0.135331  0.162610  1
  O  O41  1  0.571257  0.865625  0.706323  1
  O  O42  1  0.637199  0.462784  0.395644  1
  O  O43  1  0.518824  0.765956  0.524006  1
  O  O44  1  0.620526  0.406896  0.983811  1
  O  O45  1  0.675858  0.588380  0.991208  1
  O  O46  1  0.369262  0.003189  0.927541  1
  O  O47  1  0.503981  0.456660  0.714451  1
  O  O48  1  0.698485  0.266735  0.604256  1
  O  O49  1  0.562489  0.635331  0.162610  1
  O  O50  1  0.991639  0.773861  0.038065  1
  O  O51  1  0.198485  0.233265  0.395744  1
  O  O52  1  0.862801  0.962784  0.395644  1
  O  O53  1  0.564819  0.675074  0.649959  1
  O  O54  1  0.095665  0.132739  0.781773  1
  O  O55  1  0.335204  0.907499  0.503943  1
  O  O56  1  0.928743  0.365625  0.706323  1
  O  O57  1  0.658990  0.499618  0.584918  1
  O  O58  1  0.175858  0.911620  0.008792  1
  O  O59  1  0.835204  0.592501  0.496057  1
  O  O60  1  0.511523  0.044610  0.789995  1
  O  O61  1  0.158990  0.000382  0.415082  1
  O  O62  1  0.711951  0.083957  0.254989  1
  O  O63  1  0.924705  0.676555  0.155326  1
  O  O64  1  0.496019  0.543340  0.285549  1
  O  O65  1  0.003981  0.043340  0.285549  1
  O  O66  1  0.324142  0.411620  0.008792  1
  O  O67  1  0.824142  0.088380  0.991208  1
  O  O68  1  0.869262  0.496811  0.072459  1
  O  O69  1  0.380799  0.095482  0.528027  1
  O  O70  1  0.137199  0.037216  0.604356  1
  O  O71  1  0.801515  0.766735  0.604256  1
  O  O72  1  0.362801  0.537216  0.604356  1
  O  O73  1  0.931350  0.639909  0.670484  1
  O  O74  1  0.404335  0.632739  0.781773  1
  O  O75  1  0.698741  0.598246  0.764975  1
  O  O76  1  0.431350  0.860091  0.329516  1
  O  O77  1  0.437511  0.364669  0.837390  1
  O  O78  1  0.062489  0.864669  0.837390  1
  O  O79  1  0.402632  0.274762  0.650210  1
  O  O80  1  0.119201  0.595482  0.528027  1
  O  O81  1  0.424705  0.823445  0.844674  1
  O  O82  1  0.996019  0.956660  0.714451  1
  O  O83  1  0.848203  0.446007  0.881568  1
  O  O84  1  0.068650  0.360091  0.329516  1
  O  O85  1  0.151797  0.553993  0.118432  1
  O  O86  1  0.301259  0.401754  0.235025  1
  O  O87  1  0.841010  0.999618  0.584918  1
  O  O88  1  0.428743  0.134375  0.293677  1
  O  O89  1  0.788049  0.583957  0.254989  1
  O  O90  1  0.341010  0.500382  0.415082  1
  O  O91  1  0.302223  0.234494  0.903191  1
  O  O92  1  0.198741  0.901754  0.235025  1
  O  O93  1  0.288049  0.916043  0.745011  1
  O  O94  1  0.064819  0.824926  0.350041  1
  O  O95  1  0.664796  0.092501  0.496057  1
  O  O96  1  0.697778  0.765506  0.096809  1
  O  O97  1  0.348203  0.053993  0.118432  1
  O  O98  1  0.164796  0.407499  0.503943  1
  O  O99  1  0.097368  0.774762  0.650210  1
  O  O100  1  0.880799  0.404518  0.471973  1
  O  O101  1  0.879474  0.906896  0.983811  1
  O  O102  1  0.481176  0.234044  0.475994  1
  O  O103  1  0.211951  0.416043  0.745011  1
  O  O104  1  0.597368  0.725238  0.349790  1
  O  O105  1  0.981176  0.265956  0.524006  1
  O  O106  1  0.508361  0.273861  0.038065  1
  O  O107  1  0.630738  0.996811  0.072459  1
  O  O108  1  0.071257  0.634375  0.293677  1
  O  O109  1  0.197777  0.734494  0.903191  1
  O  O110  1  0.301515  0.733265  0.395744  1
  O  O111  1  0.011523  0.455390  0.210005  1
  O  O112  1  0.568650  0.139909  0.670484  1
  O  O113  1  0.904335  0.867261  0.218227  1
  O  O114  1  0.120526  0.093104  0.016189  1
  O  O115  1  0.935181  0.175074  0.649959  1
  O  O116  1  0.491639  0.726139  0.961935  1
  O  O117  1  0.596592  0.229209  0.859371  1
  O  O118  1  0.595665  0.367261  0.218227  1
  O  O119  1  0.903408  0.729209  0.859371  1
  O  O120  1  0.802222  0.265506  0.096809  1
  O  O121  1  0.619201  0.904518  0.471973  1
  O  O122  1  0.075295  0.323445  0.844674  1
  O  O123  1  0.130738  0.503189  0.927541  1
  O  O124  1  0.008361  0.226139  0.961935  1
  O  O125  1  0.575295  0.176555  0.155326  1
  O  O126  1  0.018824  0.734044  0.475994  1
  O  O127  1  0.488477  0.955390  0.210005  1
  O  O128  1  0.435181  0.324926  0.350041  1
  O  O129  1  0.379474  0.593104  0.016189  1
  O  O130  1  0.801259  0.098246  0.764975  1
  O  O131  1  0.902632  0.225238  0.349790  1
  O  O132  1  0.651797  0.946007  0.881568  1
  O  O133  1  0.988477  0.544610  0.789995  1
  O  O134  1  0.403408  0.770791  0.140629  1
  O  O135  1  0.096592  0.270791  0.140629  1
