# generated using pymatgen
data_Fe2NiO4
_symmetry_space_group_name_H-M   'P 1'
_cell_length_a   5.99315967
_cell_length_b   6.02459818
_cell_length_c   23.97877678
_cell_angle_alpha   59.83484687
_cell_angle_beta   60.23981060
_cell_angle_gamma   59.82631755
_symmetry_Int_Tables_number   1
_chemical_formula_structural   Fe2NiO4
_chemical_formula_sum   'Fe16 Ni8 O32'
_cell_volume   611.72456945
_cell_formula_units_Z   8
loop_
 _symmetry_equiv_pos_site_id
 _symmetry_equiv_pos_as_xyz
  1  'x, y, z'
loop_
 _atom_site_type_symbol
 _atom_site_label
 _atom_site_symmetry_multiplicity
 _atom_site_fract_x
 _atom_site_fract_y
 _atom_site_fract_z
 _atom_site_occupancy
  Fe  Fe0  1  0.259597  0.247002  0.061600  1
  Fe  Fe1  1  0.631278  0.123615  0.154172  1
  Fe  Fe2  1  0.257249  0.250234  0.310571  1
  Fe  Fe3  1  0.991336  0.002731  0.500800  1
  Fe  Fe4  1  0.629192  0.625406  0.029999  1
  Fe  Fe5  1  0.631278  0.628417  0.154172  1
  Fe  Fe6  1  0.621884  0.122266  0.407285  1
  Fe  Fe7  1  0.254817  0.246924  0.562834  1
  Fe  Fe8  1  0.994615  0.002230  0.750231  1
  Fe  Fe9  1  0.630179  0.629445  0.277733  1
  Fe  Fe10  1  0.621884  0.626710  0.407285  1
  Fe  Fe11  1  0.624344  0.123888  0.656932  1
  Fe  Fe12  1  0.254884  0.245248  0.813655  1
  Fe  Fe13  1  0.624344  0.624041  0.656932  1
  Fe  Fe14  1  0.628174  0.119371  0.907380  1
  Fe  Fe15  1  0.628174  0.622937  0.907380  1
  Ni  Ni16  1  0.998726  0.001850  0.999393  1
  Ni  Ni17  1  0.995335  0.999095  0.251619  1
  Ni  Ni18  1  0.123762  0.628113  0.155003  1
  Ni  Ni19  1  0.120765  0.626398  0.406610  1
  Ni  Ni20  1  0.124329  0.624382  0.656727  1
  Ni  Ni21  1  0.626200  0.624093  0.531403  1
  Ni  Ni22  1  0.122605  0.623544  0.907577  1
  Ni  Ni23  1  0.622158  0.623135  0.782893  1
  O  O24  1  0.393862  0.386864  0.091820  1
  O  O25  1  0.393862  0.851995  0.091820  1
  O  O26  1  0.389970  0.379875  0.212570  1
  O  O27  1  0.385845  0.383930  0.343638  1
  O  O28  1  0.856276  0.385396  0.093233  1
  O  O29  1  0.404429  0.870917  0.213434  1
  O  O30  1  0.385845  0.855672  0.343638  1
  O  O31  1  0.860116  0.402759  0.216454  1
  O  O32  1  0.385033  0.382354  0.462565  1
  O  O33  1  0.856421  0.872376  0.099707  1
  O  O34  1  0.388078  0.873030  0.466466  1
  O  O35  1  0.853361  0.383027  0.345146  1
  O  O36  1  0.395538  0.369282  0.593937  1
  O  O37  1  0.860116  0.871308  0.216454  1
  O  O38  1  0.395538  0.859431  0.593937  1
  O  O39  1  0.375438  0.387123  0.712579  1
  O  O40  1  0.847550  0.868474  0.353875  1
  O  O41  1  0.863718  0.391886  0.467328  1
  O  O42  1  0.855194  0.377776  0.597314  1
  O  O43  1  0.863718  0.875084  0.467328  1
  O  O44  1  0.382236  0.371852  0.847530  1
  O  O45  1  0.394513  0.872586  0.715079  1
  O  O46  1  0.855697  0.390668  0.718329  1
  O  O47  1  0.389655  0.377456  0.963858  1
  O  O48  1  0.382236  0.855793  0.847530  1
  O  O49  1  0.873319  0.861245  0.601048  1
  O  O50  1  0.415019  0.857494  0.967498  1
  O  O51  1  0.855697  0.880317  0.718329  1
  O  O52  1  0.858481  0.373339  0.848710  1
  O  O53  1  0.850999  0.406652  0.970025  1
  O  O54  1  0.864132  0.870710  0.848612  1
  O  O55  1  0.850999  0.862250  0.970025  1
