# generated using pymatgen
data_Fe19Co5O32
_symmetry_space_group_name_H-M   'P 1'
_cell_length_a   8.52149157
_cell_length_b   10.44163729
_cell_length_c   8.52149157
_cell_angle_alpha   65.54513685
_cell_angle_beta   89.91677418
_cell_angle_gamma   113.63727636
_symmetry_Int_Tables_number   1
_chemical_formula_structural   Fe19Co5O32
_chemical_formula_sum   'Fe19 Co5 O32'
_cell_volume   619.42281764
_cell_formula_units_Z   1
loop_
 _symmetry_equiv_pos_site_id
 _symmetry_equiv_pos_as_xyz
  1  'x, y, z'
loop_
 _atom_site_type_symbol
 _atom_site_label
 _atom_site_symmetry_multiplicity
 _atom_site_fract_x
 _atom_site_fract_y
 _atom_site_fract_z
 _atom_site_occupancy
  Fe  Fe0  1  0.502463  0.004043  0.499593  1
  Fe  Fe1  1  0.003637  0.004043  -0.001581  1
  Fe  Fe2  1  0.687500  0.125000  0.062500  1
  Fe  Fe3  1  0.872537  0.245957  0.625407  1
  Fe  Fe4  1  0.371363  0.245957  0.126581  1
  Fe  Fe5  1  0.312790  0.374889  0.683356  1
  Fe  Fe6  1  0.061639  0.376708  0.937591  1
  Fe  Fe7  1  0.814299  0.376708  0.184931  1
  Fe  Fe8  1  0.558245  0.374889  0.437901  1
  Fe  Fe9  1  0.242689  0.490931  0.251759  1
  Fe  Fe10  1  0.746826  0.498738  0.748088  1
  Fe  Fe11  1  0.437186  0.625000  0.812814  1
  Fe  Fe12  1  0.937814  0.625000  0.312186  1
  Fe  Fe13  1  0.132311  0.759069  0.873241  1
  Fe  Fe14  1  0.628174  0.751262  0.376912  1
  Fe  Fe15  1  0.313361  0.873292  0.187409  1
  Fe  Fe16  1  0.816755  0.875111  0.687099  1
  Fe  Fe17  1  0.560701  0.873292  0.940069  1
  Fe  Fe18  1  0.062210  0.875111  0.441644  1
  Co  Co19  1  0.437670  0.125926  0.811745  1
  Co  Co20  1  0.187500  0.125000  0.562500  1
  Co  Co21  1  0.937330  0.124074  0.313255  1
  Co  Co22  1  0.687500  0.625000  0.062500  1
  Co  Co23  1  0.187500  0.625000  0.562500  1
  O  O24  1  0.674757  0.122489  0.821875  1
  O  O25  1  0.444365  0.122489  0.052267  1
  O  O26  1  0.936871  0.120223  0.552273  1
  O  O27  1  0.172496  0.120223  0.316647  1
  O  O28  1  0.700243  0.127511  0.303125  1
  O  O29  1  0.930635  0.127511  0.072733  1
  O  O30  1  0.438129  0.129777  0.572727  1
  O  O31  1  0.202504  0.129777  0.808353  1
  O  O32  1  0.815522  0.358728  0.956793  1
  O  O33  1  0.540744  0.353464  0.687280  1
  O  O34  1  0.322417  0.368156  0.454261  1
  O  O35  1  0.038448  0.353050  0.185398  1
  O  O36  1  0.067204  0.368228  0.700731  1
  O  O37  1  0.568959  0.368228  0.198976  1
  O  O38  1  0.309317  0.381430  0.929628  1
  O  O39  1  0.811058  0.381430  0.427888  1
  O  O40  1  0.923941  0.608151  0.082690  1
  O  O41  1  0.423604  0.607256  0.584697  1
  O  O42  1  0.190842  0.608151  0.815790  1
  O  O43  1  0.691953  0.607256  0.316347  1
  O  O44  1  0.683047  0.642744  0.808653  1
  O  O45  1  0.184158  0.641849  0.309210  1
  O  O46  1  0.451059  0.641849  0.042310  1
  O  O47  1  0.951396  0.642744  0.540303  1
  O  O48  1  0.563942  0.868570  0.697112  1
  O  O49  1  0.065683  0.868570  0.195372  1
  O  O50  1  0.806041  0.881772  0.926024  1
  O  O51  1  0.307796  0.881772  0.424269  1
  O  O52  1  0.336552  0.896950  0.939602  1
  O  O53  1  0.559478  0.891272  0.168207  1
  O  O54  1  0.052583  0.881844  0.670739  1
  O  O55  1  0.834256  0.896536  0.437720  1
