# generated using pymatgen
data_FeAu3
_symmetry_space_group_name_H-M   'P 1'
_cell_length_a   4.58622878
_cell_length_b   4.58622041
_cell_length_c   4.58622918
_cell_angle_alpha   59.99882082
_cell_angle_beta   59.99883847
_cell_angle_gamma   59.99885968
_symmetry_Int_Tables_number   1
_chemical_formula_structural   FeAu3
_chemical_formula_sum   'Fe1 Au3'
_cell_volume   68.20873061
_cell_formula_units_Z   1
loop_
 _symmetry_equiv_pos_site_id
 _symmetry_equiv_pos_as_xyz
  1  'x, y, z'
loop_
 _atom_site_type_symbol
 _atom_site_label
 _atom_site_symmetry_multiplicity
 _atom_site_fract_x
 _atom_site_fract_y
 _atom_site_fract_z
 _atom_site_occupancy
  Fe  Fe0  1  0.750003  0.750002  0.750001  1
  Au  Au1  1  0.999999  0.999999  0.000000  1
  Au  Au2  1  0.500000  0.500000  0.500001  1
  Au  Au3  1  0.249999  0.250000  0.249999  1
