# generated using pymatgen
data_Ce14Y18O55
_symmetry_space_group_name_H-M   'P 1'
_cell_length_a   9.40042130
_cell_length_b   9.40839630
_cell_length_c   18.74789453
_cell_angle_alpha   109.51240411
_cell_angle_beta   109.27617881
_cell_angle_gamma   109.52500845
_symmetry_Int_Tables_number   1
_chemical_formula_structural   Ce14Y18O55
_chemical_formula_sum   'Ce14 Y18 O55'
_cell_volume   1277.98801573
_cell_formula_units_Z   1
loop_
 _symmetry_equiv_pos_site_id
 _symmetry_equiv_pos_as_xyz
  1  'x, y, z'
loop_
 _atom_site_type_symbol
 _atom_site_label
 _atom_site_symmetry_multiplicity
 _atom_site_fract_x
 _atom_site_fract_y
 _atom_site_fract_z
 _atom_site_occupancy
  Ce  Ce0  1  0.255950  0.977045  0.129642  1
  Ce  Ce1  1  0.486182  0.244601  0.870818  1
  Ce  Ce2  1  0.520999  0.763485  0.635390  1
  Ce  Ce3  1  0.735969  0.261130  0.756001  1
  Ce  Ce4  1  0.720800  0.479343  0.613793  1
  Ce  Ce5  1  0.751711  0.754389  0.499896  1
  Ce  Ce6  1  0.488420  0.994543  0.507566  1
  Ce  Ce7  1  0.758572  0.002545  0.876606  1
  Ce  Ce8  1  0.983044  0.257128  0.613630  1
  Ce  Ce9  1  0.746256  0.746395  0.001900  1
  Ce  Ce10  1  0.717311  0.481877  0.118552  1
  Ce  Ce11  1  0.491239  0.992516  -0.000052  1
  Ce  Ce12  1  0.783474  0.012350  0.372889  1
  Ce  Ce13  1  0.980372  0.253622  0.117214  1
  O  O14  1  0.013011  0.478662  0.876213  1
  O  O15  1  0.227613  0.966775  0.747472  1
  O  O16  1  0.240468  0.757159  0.868956  1
  O  O17  1  0.233009  0.270243  0.872726  1
  O  O18  1  0.010120  0.047175  0.632378  1
  O  O19  1  0.236410  0.466817  0.736699  1
  O  O20  1  0.254951  0.712450  0.612771  1
  O  O21  1  0.034794  0.263645  0.503713  1
  O  O22  1  0.014067  0.484966  0.378117  1
  O  O23  1  0.745439  0.002564  0.001439  1
  O  O24  1  0.253141  0.974667  0.255214  1
  O  O25  1  0.260960  0.773498  0.369703  1
  O  O26  1  0.521541  0.759156  0.754092  1
  O  O27  1  0.487102  0.231119  0.993366  1
  O  O28  1  0.510947  0.511016  0.877628  1
  O  O29  1  0.467206  0.474119  0.609586  1
  O  O30  1  0.486136  0.739567  0.505281  1
  O  O31  1  0.235901  0.275479  0.371427  1
  O  O32  1  0.028819  0.048629  0.137989  1
  O  O33  1  0.478328  0.249037  0.742548  1
  O  O34  1  0.253875  0.013572  0.515431  1
  O  O35  1  0.234166  0.466677  0.236136  1
  O  O36  1  0.509408  -0.001393  0.875115  1
  O  O37  1  0.759088  0.763146  0.884495  1
  O  O38  1  0.252491  0.714290  0.111827  1
  O  O39  1  0.021356  0.260243  0.004531  1
  O  O40  1  0.992749  0.745278  0.007005  1
  O  O41  1  0.734358  0.250158  0.873697  1
  O  O42  1  0.502497  0.998420  0.632602  1
  O  O43  1  0.725157  0.012436  0.488251  1
  O  O44  1  0.766157  0.521541  0.751367  1
  O  O45  1  0.523565  0.785372  0.264987  1
  O  O46  1  0.002034  0.969656  0.862748  1
  O  O47  1  0.770063  0.749818  0.638727  1
  O  O48  1  0.513887  0.528618  0.378150  1
  O  O49  1  0.493381  0.214817  0.484019  1
  O  O50  1  0.462800  0.483622  0.115323  1
  O  O51  1  0.489854  0.739584  0.003709  1
  O  O52  1  0.729564  0.500327  0.498075  1
  O  O53  1  0.474937  0.257410  0.240112  1
  O  O54  1  0.756385  0.244198  0.633954  1
  O  O55  1  0.777034  0.035222  0.755242  1
  O  O56  1  0.248073  0.013348  0.014959  1
  O  O57  1  0.771816  0.771824  0.386006  1
  O  O58  1  0.982062  0.511110  0.629850  1
  O  O59  1  0.992278  0.744692  0.506550  1
  O  O60  1  0.717821  0.226330  0.374524  1
  O  O61  1  0.499111  1.000174  0.130163  1
  O  O62  1  0.768617  0.527334  0.252404  1
  O  O63  1  0.010686  0.968584  0.361223  1
  O  O64  1  0.776177  0.749408  0.137853  1
  O  O65  1  0.726782  0.488510  0.997135  1
  O  O66  1  0.753847  0.244154  0.132292  1
  O  O67  1  0.789510  0.039964  0.254656  1
  O  O68  1  0.981413  0.511640  0.130483  1
  Y  Y69  1  0.007993  0.007356  0.752550  1
  Y  Y70  1  0.005626  0.751392  0.888592  1
  Y  Y71  1  0.245789  0.968461  0.627709  1
  Y  Y72  1  0.971120  0.492285  0.496279  1
  Y  Y73  1  0.015805  0.008111  0.251622  1
  Y  Y74  1  0.009846  0.747524  0.388764  1
  Y  Y75  1  0.268156  0.521742  0.872590  1
  Y  Y76  1  0.269823  0.742958  0.747992  1
  Y  Y77  1  0.239546  0.225163  0.985547  1
  Y  Y78  1  0.977363  0.496573  0.000400  1
  Y  Y79  1  0.524534  0.520187  0.760349  1
  Y  Y80  1  0.263653  0.524230  0.371237  1
  Y  Y81  1  0.252907  0.724499  0.237139  1
  Y  Y82  1  0.248556  0.219468  0.481644  1
  Y  Y83  1  0.485970  0.271459  0.368730  1
  Y  Y84  1  0.528289  0.532868  0.260176  1
  Y  Y85  1  0.531764  0.776213  0.139245  1
  Y  Y86  1  0.729998  0.259713  0.255671  1
