# generated using pymatgen
data_FeCo9O20
_symmetry_space_group_name_H-M   'P 1'
_cell_length_a   7.52758246
_cell_length_b   4.92288804
_cell_length_c   9.79259128
_cell_angle_alpha   85.71569187
_cell_angle_beta   80.39040811
_cell_angle_gamma   71.14885988
_symmetry_Int_Tables_number   1
_chemical_formula_structural   FeCo9O20
_chemical_formula_sum   'Fe1 Co9 O20'
_cell_volume   338.52077336
_cell_formula_units_Z   1
loop_
 _symmetry_equiv_pos_site_id
 _symmetry_equiv_pos_as_xyz
  1  'x, y, z'
loop_
 _atom_site_type_symbol
 _atom_site_label
 _atom_site_symmetry_multiplicity
 _atom_site_fract_x
 _atom_site_fract_y
 _atom_site_fract_z
 _atom_site_occupancy
  Fe  Fe0  1  0.150000  0.050000  0.250000  1
  Co  Co1  1  0.945553  0.651459  0.248297  1
  Co  Co2  1  0.850058  0.949878  0.749985  1
  Co  Co3  1  0.748118  0.252497  0.248573  1
  Co  Co4  1  0.650000  0.550000  0.750000  1
  Co  Co5  1  0.449942  0.150122  0.750015  1
  Co  Co6  1  0.551882  0.847503  0.251427  1
  Co  Co7  1  0.354447  0.448541  0.251703  1
  Co  Co8  1  0.250026  0.750087  0.749841  1
  Co  Co9  1  0.049974  0.349913  0.750159  1
  O  O10  1  0.955916  0.340455  0.147405  1
  O  O11  1  0.870358  0.620291  0.653762  1
  O  O12  1  0.829753  0.279074  0.846292  1
  O  O13  1  0.922157  0.979070  0.347887  1
  O  O14  1  0.670299  0.220627  0.653726  1
  O  O15  1  0.729224  0.580486  0.346764  1
  O  O16  1  0.768281  0.921603  0.152549  1
  O  O17  1  0.629701  0.879373  0.846274  1
  O  O18  1  0.531719  0.178397  0.347451  1
  O  O19  1  0.470247  0.820926  0.653708  1
  O  O20  1  0.570776  0.519514  0.153236  1
  O  O21  1  0.429642  0.479709  0.846238  1
  O  O22  1  0.377843  0.120930  0.152113  1
  O  O23  1  0.270070  0.420490  0.653656  1
  O  O24  1  0.229699  0.079451  0.846473  1
  O  O25  1  0.344084  0.759545  0.352595  1
  O  O26  1  0.070301  0.020549  0.653527  1
  O  O27  1  0.172200  0.717159  0.152559  1
  O  O28  1  0.029930  0.679510  0.846344  1
  O  O29  1  0.127800  0.382841  0.347441  1
