# generated using pymatgen
data_Fe2NiO4
_symmetry_space_group_name_H-M   'P 1'
_cell_length_a   6.00262380
_cell_length_b   5.98753840
_cell_length_c   29.98170241
_cell_angle_alpha   59.84726340
_cell_angle_beta   59.67897077
_cell_angle_gamma   59.86266725
_symmetry_Int_Tables_number   1
_chemical_formula_structural   Fe2NiO4
_chemical_formula_sum   'Fe20 Ni10 O40'
_cell_volume   758.42915525
_cell_formula_units_Z   10
loop_
 _symmetry_equiv_pos_site_id
 _symmetry_equiv_pos_as_xyz
  1  'x, y, z'
loop_
 _atom_site_type_symbol
 _atom_site_label
 _atom_site_symmetry_multiplicity
 _atom_site_fract_x
 _atom_site_fract_y
 _atom_site_fract_z
 _atom_site_occupancy
  Fe  Fe0  1  0.250736  0.247793  0.050822  1
  Fe  Fe1  1  0.122033  0.627807  0.124509  1
  Fe  Fe2  1  0.627565  0.123016  0.124418  1
  Fe  Fe3  1  0.993301  0.993038  0.401303  1
  Fe  Fe4  1  0.251897  0.252253  0.250412  1
  Fe  Fe5  1  0.627550  0.627419  0.124508  1
  Fe  Fe6  1  0.255532  0.256768  0.448454  1
  Fe  Fe7  1  0.624664  0.624787  0.224993  1
  Fe  Fe8  1  0.993370  0.992526  0.601668  1
  Fe  Fe9  1  0.628256  0.628205  0.324535  1
  Fe  Fe10  1  0.994943  0.995846  0.799837  1
  Fe  Fe11  1  0.255668  0.255823  0.649424  1
  Fe  Fe12  1  0.623933  0.626343  0.425373  1
  Fe  Fe13  1  0.624592  0.624848  0.525073  1
  Fe  Fe14  1  0.625726  0.624875  0.625160  1
  Fe  Fe15  1  0.258979  0.249133  0.849153  1
  Fe  Fe16  1  0.624008  0.624533  0.725493  1
  Fe  Fe17  1  0.627743  0.116692  0.926918  1
  Fe  Fe18  1  0.625079  0.622696  0.824536  1
  Fe  Fe19  1  0.627027  0.622249  0.926597  1
  Ni  Ni20  1  -0.000811  0.004812  0.998252  1
  Ni  Ni21  1  -0.001969  0.997435  0.201794  1
  Ni  Ni22  1  0.627221  0.626265  0.023904  1
  Ni  Ni23  1  0.124264  0.625841  0.324636  1
  Ni  Ni24  1  0.625809  0.124316  0.324623  1
  Ni  Ni25  1  0.125059  0.625101  0.524921  1
  Ni  Ni26  1  0.625076  0.125183  0.524898  1
  Ni  Ni27  1  0.122498  0.624694  0.725526  1
  Ni  Ni28  1  0.624244  0.122111  0.725676  1
  Ni  Ni29  1  0.120602  0.625159  0.926084  1
  O  O30  1  0.375751  0.376500  0.078714  1
  O  O31  1  0.376243  0.852987  0.078769  1
  O  O32  1  0.383851  0.384961  0.169864  1
  O  O33  1  0.855254  0.376219  0.078515  1
  O  O34  1  0.388715  0.388247  0.272943  1
  O  O35  1  0.404852  0.868714  0.172510  1
  O  O36  1  0.868768  0.405058  0.172431  1
  O  O37  1  0.386925  0.388099  0.369946  1
  O  O38  1  0.864013  0.866645  0.080268  1
  O  O39  1  0.390775  0.859364  0.274256  1
  O  O40  1  0.859175  0.390725  0.274131  1
  O  O41  1  0.865835  0.866845  0.171586  1
  O  O42  1  0.386842  0.385877  0.474593  1
  O  O43  1  0.390089  0.863026  0.374764  1
  O  O44  1  0.862736  0.390119  0.374810  1
  O  O45  1  0.392157  0.392565  0.570108  1
  O  O46  1  0.862263  0.861401  0.281008  1
  O  O47  1  0.382618  0.862093  0.474574  1
  O  O48  1  0.857623  0.387929  0.475311  1
  O  O49  1  0.864222  0.864874  0.375186  1
  O  O50  1  0.392125  0.862188  0.574979  1
  O  O51  1  0.384917  0.384626  0.675505  1
  O  O52  1  0.867094  0.387899  0.575810  1
  O  O53  1  0.856663  0.856284  0.480238  1
  O  O54  1  0.389621  0.389518  0.770775  1
  O  O55  1  0.389786  0.855572  0.676804  1
  O  O56  1  0.853206  0.393444  0.677148  1
  O  O57  1  0.863681  0.864902  0.575054  1
  O  O58  1  0.395108  0.384568  0.874397  1
  O  O59  1  0.400926  0.850058  0.774474  1
  O  O60  1  0.853370  0.399319  0.774381  1
  O  O61  1  0.857626  0.857308  0.680749  1
  O  O62  1  0.383090  0.377257  0.972846  1
  O  O63  1  0.394086  0.849706  0.873890  1
  O  O64  1  0.852122  0.385456  0.874719  1
  O  O65  1  0.857696  0.857842  0.776815  1
  O  O66  1  0.405329  0.871889  0.970463  1
  O  O67  1  0.859242  0.403576  0.972564  1
  O  O68  1  0.863651  0.873843  0.877495  1
  O  O69  1  0.857360  0.874930  0.973104  1
