# generated using pymatgen
data_Fe21Ni9O40
_symmetry_space_group_name_H-M   'P 1'
_cell_length_a   30.24093641
_cell_length_b   16.02555716
_cell_length_c   10.44738986
_cell_angle_alpha   29.20356705
_cell_angle_beta   30.06542053
_cell_angle_gamma   19.06491767
_symmetry_Int_Tables_number   1
_chemical_formula_structural   Fe21Ni9O40
_chemical_formula_sum   'Fe21 Ni9 O40'
_cell_volume   780.50389180
_cell_formula_units_Z   1
loop_
 _symmetry_equiv_pos_site_id
 _symmetry_equiv_pos_as_xyz
  1  'x, y, z'
loop_
 _atom_site_type_symbol
 _atom_site_label
 _atom_site_symmetry_multiplicity
 _atom_site_fract_x
 _atom_site_fract_y
 _atom_site_fract_z
 _atom_site_occupancy
  Fe  Fe0  1  0.001472  -0.000717  0.497357  1
  Fe  Fe1  1  0.200423  0.998020  0.503941  1
  Fe  Fe2  1  0.100592  0.499455  0.001444  1
  Fe  Fe3  1  0.098890  0.499779  0.502785  1
  Fe  Fe4  1  0.400185  0.998824  0.500019  1
  Fe  Fe5  1  0.298592  0.501655  0.002229  1
  Fe  Fe6  1  0.198884  0.501627  0.500085  1
  Fe  Fe7  1  0.300339  0.500392  0.499211  1
  Fe  Fe8  1  0.502559  0.495041  0.998666  1
  Fe  Fe9  1  0.602745  0.995001  0.500350  1
  Fe  Fe10  1  0.400853  0.496917  0.503370  1
  Fe  Fe11  1  0.500121  0.498278  0.503678  1
  Fe  Fe12  1  0.703196  0.493059  0.000479  1
  Fe  Fe13  1  0.800033  0.998040  0.502810  1
  Fe  Fe14  1  0.603351  0.496953  0.494778  1
  Fe  Fe15  1  0.701224  0.499198  0.497283  1
  Fe  Fe16  1  0.898642  0.502222  0.001031  1
  Fe  Fe17  1  0.451422  0.871128  0.876748  1
  Fe  Fe18  1  0.802184  0.496345  0.499203  1
  Fe  Fe19  1  0.902800  0.492586  0.503094  1
  Fe  Fe20  1  0.998383  0.498225  0.506676  1
  Ni  Ni21  1  0.149432  0.124970  0.128815  1
  Ni  Ni22  1  0.350931  0.120621  0.130082  1
  Ni  Ni23  1  0.549108  0.126702  0.122532  1
  Ni  Ni24  1  0.052030  0.868947  0.881140  1
  Ni  Ni25  1  0.752302  0.122465  0.123707  1
  Ni  Ni26  1  0.249806  0.877668  0.872825  1
  Ni  Ni27  1  0.949640  0.123572  0.130108  1
  Ni  Ni28  1  0.650124  0.875280  0.871851  1
  Ni  Ni29  1  0.851678  0.872280  0.875507  1
  O  O30  1  0.099477  0.257954  0.256795  1
  O  O31  1  0.004832  0.255167  0.724866  1
  O  O32  1  0.189153  0.257219  0.261982  1
  O  O33  1  0.085775  0.281449  0.742865  1
  O  O34  1  0.292713  0.265903  0.261345  1
  O  O35  1  0.204329  0.257338  0.722421  1
  O  O36  1  0.110517  0.719856  0.260791  1
  O  O37  1  0.386013  0.257133  0.270443  1
  O  O38  1  0.013035  0.742218  0.733311  1
  O  O39  1  0.196555  0.739233  0.278087  1
  O  O40  1  0.285588  0.287597  0.737050  1
  O  O41  1  0.104643  0.739857  0.739854  1
  O  O42  1  0.497533  0.256571  0.261064  1
  O  O43  1  0.405818  0.255747  0.721727  1
  O  O44  1  0.314207  0.717197  0.257935  1
  O  O45  1  0.588910  0.258433  0.260977  1
  O  O46  1  0.213791  0.739363  0.735485  1
  O  O47  1  0.395697  0.734153  0.290146  1
  O  O48  1  0.486634  0.280751  0.746984  1
  O  O49  1  0.303549  0.737828  0.746839  1
  O  O50  1  0.694725  0.262133  0.259631  1
  O  O51  1  0.607704  0.257100  0.716450  1
  O  O52  1  0.514310  0.716176  0.255886  1
  O  O53  1  0.791444  0.253242  0.257929  1
  O  O54  1  0.416912  0.733608  0.734969  1
  O  O55  1  0.596513  0.740814  0.275995  1
  O  O56  1  0.691618  0.276217  0.734856  1
  O  O57  1  0.506323  0.733317  0.738825  1
  O  O58  1  0.894544  0.264481  0.259988  1
  O  O59  1  0.803278  0.262378  0.719261  1
  O  O60  1  0.710949  0.721500  0.261604  1
  O  O61  1  0.989369  0.257124  0.258297  1
  O  O62  1  0.616291  0.735891  0.735856  1
  O  O63  1  0.797446  0.734178  0.284186  1
  O  O64  1  0.891921  0.272092  0.739755  1
  O  O65  1  0.708182  0.729573  0.742178  1
  O  O66  1  0.914678  0.711616  0.263534  1
  O  O67  1  0.809390  0.742731  0.743364  1
  O  O68  1  0.992465  0.739016  0.288832  1
  O  O69  1  0.904874  0.738354  0.740762  1
