# generated using pymatgen
data_Fe2CoO4
_symmetry_space_group_name_H-M   'P 1'
_cell_length_a   6.02870076
_cell_length_b   6.02870076
_cell_length_c   36.02235431
_cell_angle_alpha   60.29609853
_cell_angle_beta   60.29609854
_cell_angle_gamma   60.29211291
_symmetry_Int_Tables_number   1
_chemical_formula_structural   Fe2CoO4
_chemical_formula_sum   'Fe24 Co12 O48'
_cell_volume   931.94858321
_cell_formula_units_Z   12
loop_
 _symmetry_equiv_pos_site_id
 _symmetry_equiv_pos_as_xyz
  1  'x, y, z'
loop_
 _atom_site_type_symbol
 _atom_site_label
 _atom_site_symmetry_multiplicity
 _atom_site_fract_x
 _atom_site_fract_y
 _atom_site_fract_z
 _atom_site_occupancy
  Fe  Fe0  1  0.123720  0.123720  0.019867  1
  Fe  Fe1  1  0.000998  0.502870  0.082183  1
  Fe  Fe2  1  0.502978  0.502978  -0.000974  1
  Fe  Fe3  1  0.122867  0.122867  0.188041  1
  Fe  Fe4  1  0.502870  0.000998  0.082183  1
  Fe  Fe5  1  0.994034  0.501143  0.250536  1
  Fe  Fe6  1  0.119241  0.119241  0.355442  1
  Fe  Fe7  1  0.502652  0.502652  0.165011  1
  Fe  Fe8  1  0.998597  0.498732  0.417393  1
  Fe  Fe9  1  0.498732  0.998597  0.417393  1
  Fe  Fe10  1  0.118469  0.118469  0.522164  1
  Fe  Fe11  1  0.501143  0.994034  0.250536  1
  Fe  Fe12  1  -0.000522  0.498906  0.583662  1
  Fe  Fe13  1  0.878970  0.878970  0.312742  1
  Fe  Fe14  1  0.119235  0.119235  0.688900  1
  Fe  Fe15  1  -0.000122  0.499737  0.750201  1
  Fe  Fe16  1  0.879819  0.879819  0.478429  1
  Fe  Fe17  1  0.119417  0.119417  0.854958  1
  Fe  Fe18  1  0.498906  -0.000522  0.583662  1
  Fe  Fe19  1  0.002818  0.498437  0.916255  1
  Fe  Fe20  1  0.499737  -0.000122  0.750201  1
  Fe  Fe21  1  0.880766  0.880766  0.644951  1
  Fe  Fe22  1  0.880718  0.880718  0.811508  1
  Fe  Fe23  1  0.498437  0.002818  0.916255  1
  Co  Co24  1  0.497679  0.497679  0.084391  1
  Co  Co25  1  0.499799  0.499799  0.250006  1
  Co  Co26  1  0.498963  0.498963  0.333690  1
  Co  Co27  1  0.878749  0.878749  0.144720  1
  Co  Co28  1  0.499612  0.499612  0.416538  1
  Co  Co29  1  0.499409  0.499409  0.500375  1
  Co  Co30  1  0.499854  0.499854  0.583326  1
  Co  Co31  1  0.500561  0.500561  0.666732  1
  Co  Co32  1  0.500367  0.500367  0.749914  1
  Co  Co33  1  0.500036  0.500036  0.833410  1
  Co  Co34  1  0.502413  0.502413  0.916242  1
  Co  Co35  1  0.877677  0.877677  0.978056  1
  O  O36  1  0.260504  0.260504  0.044713  1
  O  O37  1  0.265637  0.707003  0.046890  1
  O  O38  1  0.262100  0.262100  0.122542  1
  O  O39  1  0.707003  0.265637  0.046890  1
  O  O40  1  0.285457  0.733533  0.122148  1
  O  O41  1  0.257251  0.257251  0.209842  1
  O  O42  1  0.249982  0.730718  0.208203  1
  O  O43  1  0.253389  0.253389  0.288427  1
  O  O44  1  0.733533  0.285457  0.122148  1
  O  O45  1  0.729740  0.729740  0.047990  1
  O  O46  1  0.730718  0.249982  0.208203  1
  O  O47  1  0.738335  0.738335  0.123487  1
  O  O48  1  0.266389  0.755463  0.289557  1
  O  O49  1  0.253222  0.253222  0.377086  1
  O  O50  1  0.246156  0.731337  0.377109  1
  O  O51  1  0.755463  0.266389  0.289557  1
  O  O52  1  0.249862  0.249862  0.455525  1
  O  O53  1  0.743549  0.743549  0.213152  1
  O  O54  1  0.731337  0.246156  0.377109  1
  O  O55  1  0.748383  0.748383  0.289696  1
  O  O56  1  0.268848  0.753321  0.456056  1
  O  O57  1  0.250788  0.250788  0.544057  1
  O  O58  1  0.748201  0.748201  0.378460  1
  O  O59  1  0.253311  0.253311  0.621809  1
  O  O60  1  0.753321  0.268848  0.456056  1
  O  O61  1  0.245790  0.730698  0.543167  1
  O  O62  1  0.730698  0.245790  0.543167  1
  O  O63  1  0.749248  0.749248  0.455739  1
  O  O64  1  0.269655  0.754491  0.623022  1
  O  O65  1  0.251738  0.251738  0.710693  1
  O  O66  1  0.254128  0.254128  0.788156  1
  O  O67  1  0.246941  0.731680  0.709723  1
  O  O68  1  0.747135  0.747135  0.544622  1
  O  O69  1  0.754491  0.269655  0.623022  1
  O  O70  1  0.731680  0.246941  0.709723  1
  O  O71  1  0.750891  0.750891  0.621973  1
  O  O72  1  0.269898  0.755033  0.789580  1
  O  O73  1  0.249570  0.249570  0.877258  1
  O  O74  1  0.755033  0.269898  0.789580  1
  O  O75  1  0.747820  0.747820  0.711142  1
  O  O76  1  0.246486  0.733279  0.876303  1
  O  O77  1  0.260702  0.260702  0.952127  1
  O  O78  1  0.750831  0.750831  0.788563  1
  O  O79  1  0.733279  0.246486  0.876303  1
  O  O80  1  0.277576  0.746412  0.958387  1
  O  O81  1  0.746412  0.277576  0.958387  1
  O  O82  1  0.748440  0.748440  0.877326  1
  O  O83  1  0.739480  0.739480  0.956429  1
