# generated using pymatgen
data_Fe(WO4)2
_symmetry_space_group_name_H-M   'P 1'
_cell_length_a   7.58951278
_cell_length_b   7.58951279
_cell_length_c   5.06956892
_cell_angle_alpha   88.37696059
_cell_angle_beta   91.62303947
_cell_angle_gamma   77.21251329
_symmetry_Int_Tables_number   1
_chemical_formula_structural   Fe(WO4)2
_chemical_formula_sum   'Fe2 W4 O16'
_cell_volume   284.47467093
_cell_formula_units_Z   2
loop_
 _symmetry_equiv_pos_site_id
 _symmetry_equiv_pos_as_xyz
  1  'x, y, z'
loop_
 _atom_site_type_symbol
 _atom_site_label
 _atom_site_symmetry_multiplicity
 _atom_site_fract_x
 _atom_site_fract_y
 _atom_site_fract_z
 _atom_site_occupancy
  O  O0  1  0.783699  0.557818  0.082256  1
  O  O1  1  0.808513  0.112809  0.469903  1
  O  O2  1  0.191486  0.887192  0.530098  1
  O  O3  1  0.112808  0.808513  0.030098  1
  O  O4  1  0.673550  0.929012  0.871502  1
  O  O5  1  0.070989  0.326450  0.371502  1
  O  O6  1  0.428400  0.701544  0.912982  1
  O  O7  1  0.298457  0.571599  0.412981  1
  O  O8  1  0.216300  0.442183  0.917743  1
  O  O9  1  0.557817  0.783699  0.417744  1
  O  O10  1  0.442183  0.216300  0.582257  1
  O  O11  1  0.887191  0.191487  0.969901  1
  O  O12  1  0.701543  0.428400  0.587020  1
  O  O13  1  0.571600  0.298457  0.087019  1
  O  O14  1  0.929012  0.673551  0.628497  1
  O  O15  1  0.326450  0.070989  0.128497  1
  Fe  Fe16  1  0.674053  0.674052  0.750001  1
  Fe  Fe17  1  0.325947  0.325947  0.250000  1
  W  W18  1  0.339184  0.838848  0.230928  1
  W  W19  1  0.161152  0.660815  0.730928  1
  W  W20  1  0.660815  0.161151  0.769074  1
  W  W21  1  0.838848  0.339185  0.269073  1
