# generated using pymatgen
data_Fe3Co7O20
_symmetry_space_group_name_H-M   'P 1'
_cell_length_a   20.58771034
_cell_length_b   2.89538211
_cell_length_c   5.78963987
_cell_angle_alpha   89.99999944
_cell_angle_beta   82.24012857
_cell_angle_gamma   90.00000076
_symmetry_Int_Tables_number   1
_chemical_formula_structural   Fe3Co7O20
_chemical_formula_sum   'Fe3 Co7 O20'
_cell_volume   341.95596036
_cell_formula_units_Z   1
loop_
 _symmetry_equiv_pos_site_id
 _symmetry_equiv_pos_as_xyz
  1  'x, y, z'
loop_
 _atom_site_type_symbol
 _atom_site_label
 _atom_site_symmetry_multiplicity
 _atom_site_fract_x
 _atom_site_fract_y
 _atom_site_fract_z
 _atom_site_occupancy
  Fe  Fe0  1  0.800962  0.000000  0.101344  1
  Fe  Fe1  1  0.600000  0.000000  0.700000  1
  Fe  Fe2  1  0.399038  1.000000  0.298656  1
  Co  Co3  1  0.901789  0.500000  0.304914  1
  Co  Co4  1  0.700545  0.500000  0.899769  1
  Co  Co5  1  0.499455  0.500000  0.500231  1
  Co  Co6  1  0.199377  1.000000  0.898775  1
  Co  Co7  1  0.298211  0.500000  0.095086  1
  Co  Co8  1  0.100000  0.500000  0.700000  1
  Co  Co9  1  0.000623  0.000000  0.501225  1
  O  O10  1  0.908094  1.000000  0.514087  1
  O  O11  1  0.993678  0.500000  0.292027  1
  O  O12  1  0.792217  0.500000  0.877569  1
  O  O13  1  0.897256  0.000000  0.093985  1
  O  O14  1  0.809112  0.500000  0.323988  1
  O  O15  1  0.696963  0.000000  0.689502  1
  O  O16  1  0.704175  1.000000  0.110638  1
  O  O17  1  0.608716  0.500000  0.922753  1
  O  O18  1  0.503037  1.000000  0.710498  1
  O  O19  1  0.591284  0.500000  0.477247  1
  O  O20  1  0.495825  0.000000  0.289362  1
  O  O21  1  0.407783  0.500000  0.522431  1
  O  O22  1  0.291906  0.000000  0.885913  1
  O  O23  1  0.390888  0.500000  0.076012  1
  O  O24  1  0.302744  1.000000  0.306015  1
  O  O25  1  0.106862  1.000000  0.909278  1
  O  O26  1  0.192425  0.500000  0.689987  1
  O  O27  1  0.206322  0.500000  0.107973  1
  O  O28  1  0.093138  0.000000  0.490722  1
  O  O29  1  0.007575  0.500000  0.710013  1
