# generated using pymatgen
data_Fe2CoO6
_symmetry_space_group_name_H-M   'P 1'
_cell_length_a   4.48355071
_cell_length_b   4.48355568
_cell_length_c   8.94743190
_cell_angle_alpha   90.00003734
_cell_angle_beta   89.99951841
_cell_angle_gamma   89.99021044
_symmetry_Int_Tables_number   1
_chemical_formula_structural   Fe2CoO6
_chemical_formula_sum   'Fe4 Co2 O12'
_cell_volume   179.86350330
_cell_formula_units_Z   2
loop_
 _symmetry_equiv_pos_site_id
 _symmetry_equiv_pos_as_xyz
  1  'x, y, z'
loop_
 _atom_site_type_symbol
 _atom_site_label
 _atom_site_symmetry_multiplicity
 _atom_site_fract_x
 _atom_site_fract_y
 _atom_site_fract_z
 _atom_site_occupancy
  Fe  Fe0  1  0.000002  0.000000  0.333595  1
  Fe  Fe1  1  -0.000000  1.000000  0.666378  1
  Fe  Fe2  1  0.499998  0.499999  0.166434  1
  Fe  Fe3  1  0.499998  0.499998  0.833594  1
  Co  Co4  1  0.000001  0.000001  0.000015  1
  Co  Co5  1  0.500000  0.499999  0.499984  1
  O  O6  1  0.189545  0.810454  0.163111  1
  O  O7  1  0.189586  0.810415  0.836896  1
  O  O8  1  0.202931  0.797068  0.499981  1
  O  O9  1  0.297063  0.297063  0.000018  1
  O  O10  1  0.310462  0.310464  0.336905  1
  O  O11  1  0.310419  0.310418  0.663088  1
  O  O12  1  0.689537  0.689536  0.336906  1
  O  O13  1  0.689582  0.689582  0.663089  1
  O  O14  1  0.702940  0.702939  0.000018  1
  O  O15  1  0.797067  0.202934  0.499982  1
  O  O16  1  0.810458  0.189543  0.163111  1
  O  O17  1  0.810412  0.189587  0.836894  1
