# generated using pymatgen
data_Fe2CoO4
_symmetry_space_group_name_H-M   'P 1'
_cell_length_a   5.96010842
_cell_length_b   5.96264248
_cell_length_c   5.96010802
_cell_angle_alpha   59.98592984
_cell_angle_beta   60.19338514
_cell_angle_gamma   59.98593101
_symmetry_Int_Tables_number   1
_chemical_formula_structural   Fe2CoO4
_chemical_formula_sum   'Fe4 Co2 O8'
_cell_volume   149.95816199
_cell_formula_units_Z   2
loop_
 _symmetry_equiv_pos_site_id
 _symmetry_equiv_pos_as_xyz
  1  'x, y, z'
loop_
 _atom_site_type_symbol
 _atom_site_label
 _atom_site_symmetry_multiplicity
 _atom_site_fract_x
 _atom_site_fract_y
 _atom_site_fract_z
 _atom_site_occupancy
  Fe  Fe0  1  0.002470  0.997530  0.002470  1
  Fe  Fe1  1  0.247530  0.252470  0.247530  1
  Fe  Fe2  1  0.125000  0.625000  0.625000  1
  Fe  Fe3  1  0.625000  0.625000  0.125000  1
  Co  Co4  1  0.625000  0.125000  0.625000  1
  Co  Co5  1  0.625000  0.625000  0.625000  1
  O  O6  1  0.393723  0.378788  0.393723  1
  O  O7  1  0.402943  0.380946  0.835164  1
  O  O8  1  0.393723  0.833766  0.393723  1
  O  O9  1  0.835164  0.380946  0.402943  1
  O  O10  1  0.414836  0.869054  0.847057  1
  O  O11  1  0.856277  0.416234  0.856277  1
  O  O12  1  0.847057  0.869054  0.414836  1
  O  O13  1  0.856277  0.871212  0.856277  1
