# generated using pymatgen
data_Fe2CoO4
_symmetry_space_group_name_H-M   'P 1'
_cell_length_a   5.91475540
_cell_length_b   5.92615283
_cell_length_c   5.93275252
_cell_angle_alpha   120.45657549
_cell_angle_beta   119.82608267
_cell_angle_gamma   60.14465657
_symmetry_Int_Tables_number   1
_chemical_formula_structural   Fe2CoO4
_chemical_formula_sum   'Fe4 Co2 O8'
_cell_volume   146.88049907
_cell_formula_units_Z   2
loop_
 _symmetry_equiv_pos_site_id
 _symmetry_equiv_pos_as_xyz
  1  'x, y, z'
loop_
 _atom_site_type_symbol
 _atom_site_label
 _atom_site_symmetry_multiplicity
 _atom_site_fract_x
 _atom_site_fract_y
 _atom_site_fract_z
 _atom_site_occupancy
  Fe  Fe0  1  -0.000068  0.500017  -0.000025  1
  Fe  Fe1  1  0.500021  -0.000056  -0.000021  1
  Fe  Fe2  1  0.500018  0.500021  -0.000020  1
  Fe  Fe3  1  0.500049  0.500040  0.500118  1
  Co  Co4  1  0.125614  0.122559  0.376962  1
  Co  Co5  1  0.874394  0.877424  0.623045  1
  O  O6  1  0.273466  0.255249  0.248736  1
  O  O7  1  0.260764  0.714307  0.242574  1
  O  O8  1  0.262045  0.253356  0.784220  1
  O  O9  1  0.284643  0.740010  0.757051  1
  O  O10  1  0.715373  0.259991  0.242943  1
  O  O11  1  0.737957  0.746647  0.215765  1
  O  O12  1  0.726495  0.744743  0.751248  1
  O  O13  1  0.739229  0.285692  0.757404  1
