# generated using pymatgen
data_Fe2MoO4
_symmetry_space_group_name_H-M   'P 1'
_cell_length_a   6.18918490
_cell_length_b   6.18918444
_cell_length_c   6.08737079
_cell_angle_alpha   60.54269429
_cell_angle_beta   60.54269670
_cell_angle_gamma   61.59586444
_symmetry_Int_Tables_number   1
_chemical_formula_structural   Fe2MoO4
_chemical_formula_sum   'Fe4 Mo2 O8'
_cell_volume   168.16982997
_cell_formula_units_Z   2
loop_
 _symmetry_equiv_pos_site_id
 _symmetry_equiv_pos_as_xyz
  1  'x, y, z'
loop_
 _atom_site_type_symbol
 _atom_site_label
 _atom_site_symmetry_multiplicity
 _atom_site_fract_x
 _atom_site_fract_y
 _atom_site_fract_z
 _atom_site_occupancy
  Fe  Fe0  1  0.007531  0.007531  0.992469  1
  Fe  Fe1  1  0.242469  0.242469  0.257531  1
  Fe  Fe2  1  0.625000  0.625000  0.125000  1
  Fe  Fe3  1  0.625000  0.625000  0.625000  1
  Mo  Mo4  1  0.125000  0.625000  0.625000  1
  Mo  Mo5  1  0.625000  0.125000  0.625000  1
  O  O6  1  0.376356  0.376356  0.379337  1
  O  O7  1  0.376356  0.376356  0.867951  1
  O  O8  1  0.379617  0.868633  0.375875  1
  O  O9  1  0.868633  0.379617  0.375875  1
  O  O10  1  0.381367  0.870383  0.874125  1
  O  O11  1  0.870383  0.381367  0.874125  1
  O  O12  1  0.873644  0.873644  0.382049  1
  O  O13  1  0.873644  0.873644  0.870663  1
