# generated using pymatgen
data_Fe2NiO4
_symmetry_space_group_name_H-M   'P 1'
_cell_length_a   5.99628044
_cell_length_b   5.99628044
_cell_length_c   5.99628044
_cell_angle_alpha   60.00000000
_cell_angle_beta   60.00000000
_cell_angle_gamma   60.00000000
_symmetry_Int_Tables_number   1
_chemical_formula_structural   Fe2NiO4
_chemical_formula_sum   'Fe4 Ni2 O8'
_cell_volume   152.45118706
_cell_formula_units_Z   2
loop_
 _symmetry_equiv_pos_site_id
 _symmetry_equiv_pos_as_xyz
  1  'x, y, z'
loop_
 _atom_site_type_symbol
 _atom_site_label
 _atom_site_symmetry_multiplicity
 _atom_site_fract_x
 _atom_site_fract_y
 _atom_site_fract_z
 _atom_site_occupancy
  Fe  Fe0  1  0.500000  0.500000  -0.000000  1
  Fe  Fe1  1  0.500000  0.000000  0.500000  1
  Fe  Fe2  1  0.000000  0.500000  0.500000  1
  Fe  Fe3  1  0.500000  0.500000  0.500000  1
  Ni  Ni4  1  0.125000  0.125000  0.125000  1
  Ni  Ni5  1  0.875000  0.875000  0.875000  1
  O  O6  1  0.259091  0.259091  0.722728  1
  O  O7  1  0.259091  0.722728  0.259091  1
  O  O8  1  0.722728  0.259091  0.259091  1
  O  O9  1  0.259091  0.259091  0.259091  1
  O  O10  1  0.740909  0.740909  0.277272  1
  O  O11  1  0.740909  0.277272  0.740909  1
  O  O12  1  0.277272  0.740909  0.740909  1
  O  O13  1  0.740909  0.740909  0.740909  1
