# generated using pymatgen
data_Fe5CuO8
_symmetry_space_group_name_H-M   'P 1'
_cell_length_a   6.04249530
_cell_length_b   6.04244021
_cell_length_c   6.04272332
_cell_angle_alpha   59.94490339
_cell_angle_beta   59.94499868
_cell_angle_gamma   59.94810531
_symmetry_Int_Tables_number   1
_chemical_formula_structural   Fe5CuO8
_chemical_formula_sum   'Fe5 Cu1 O8'
_cell_volume   155.81677029
_cell_formula_units_Z   1
loop_
 _symmetry_equiv_pos_site_id
 _symmetry_equiv_pos_as_xyz
  1  'x, y, z'
loop_
 _atom_site_type_symbol
 _atom_site_label
 _atom_site_symmetry_multiplicity
 _atom_site_fract_x
 _atom_site_fract_y
 _atom_site_fract_z
 _atom_site_occupancy
  Fe  Fe0  1  -0.000107  -0.000119  -0.000041  1
  Fe  Fe1  1  0.133206  0.622362  0.622372  1
  Fe  Fe2  1  0.622374  0.133198  0.622366  1
  Fe  Fe3  1  0.622367  0.622373  0.133212  1
  Fe  Fe4  1  0.622662  0.622662  0.622678  1
  Cu  Cu5  1  0.249593  0.249661  0.249445  1
  O  O6  1  0.386276  0.386267  0.386235  1
  O  O7  1  0.385930  0.385924  0.841737  1
  O  O8  1  0.385912  0.841774  0.385932  1
  O  O9  1  0.841763  0.385915  0.385933  1
  O  O10  1  0.397259  0.867811  0.867816  1
  O  O11  1  0.867817  0.397242  0.867819  1
  O  O12  1  0.867806  0.867794  0.397311  1
  O  O13  1  0.867143  0.867136  0.867186  1
