# generated using pymatgen
data_Fe3Mo
_symmetry_space_group_name_H-M   'P 1'
_cell_length_a   5.12862075
_cell_length_b   5.12934868
_cell_length_c   4.10924388
_cell_angle_alpha   90.00175257
_cell_angle_beta   89.99736541
_cell_angle_gamma   120.00966736
_symmetry_Int_Tables_number   1
_chemical_formula_structural   Fe3Mo
_chemical_formula_sum   'Fe6 Mo2'
_cell_volume   93.60801615
_cell_formula_units_Z   2
loop_
 _symmetry_equiv_pos_site_id
 _symmetry_equiv_pos_as_xyz
  1  'x, y, z'
loop_
 _atom_site_type_symbol
 _atom_site_label
 _atom_site_symmetry_multiplicity
 _atom_site_fract_x
 _atom_site_fract_y
 _atom_site_fract_z
 _atom_site_occupancy
  Fe  Fe0  1  0.839252  0.160761  0.749979  1
  Fe  Fe1  1  0.321461  0.160716  0.749996  1
  Fe  Fe2  1  0.839276  0.678511  0.749988  1
  Fe  Fe3  1  0.160717  0.839151  0.250023  1
  Fe  Fe4  1  0.678454  0.839236  0.250007  1
  Fe  Fe5  1  0.160704  0.321557  0.250016  1
  Mo  Mo6  1  0.666786  0.333363  0.250040  1
  Mo  Mo7  1  0.333349  0.666703  0.749964  1
