# generated using pymatgen
data_Fe7(Ni3O8)2
_symmetry_space_group_name_H-M   'P 1'
_cell_length_a   6.00498786
_cell_length_b   6.00498786
_cell_length_c   10.29724764
_cell_angle_alpha   106.54293025
_cell_angle_beta   73.45706975
_cell_angle_gamma   119.50983719
_symmetry_Int_Tables_number   1
_chemical_formula_structural   Fe7(Ni3O8)2
_chemical_formula_sum   'Fe7 Ni6 O16'
_cell_volume   305.08977445
_cell_formula_units_Z   1
loop_
 _symmetry_equiv_pos_site_id
 _symmetry_equiv_pos_as_xyz
  1  'x, y, z'
loop_
 _atom_site_type_symbol
 _atom_site_label
 _atom_site_symmetry_multiplicity
 _atom_site_fract_x
 _atom_site_fract_y
 _atom_site_fract_z
 _atom_site_occupancy
  Fe  Fe0  1  0.312500  0.687500  0.062500  1
  Fe  Fe1  1  -0.000115  0.000115  0.989030  1
  Fe  Fe2  1  0.572125  0.939088  0.314177  1
  Fe  Fe3  1  0.060912  0.427875  0.314177  1
  Fe  Fe4  1  0.625115  0.374885  0.135970  1
  Fe  Fe5  1  0.564088  0.947125  0.810823  1
  Fe  Fe6  1  0.052875  0.435912  0.810823  1
  Ni  Ni7  1  0.061167  0.938833  0.310154  1
  Ni  Ni8  1  0.312500  0.687500  0.562500  1
  Ni  Ni9  1  0.812500  0.687500  0.562500  1
  Ni  Ni10  1  0.312500  0.187500  0.562500  1
  Ni  Ni11  1  0.812500  0.187500  0.562500  1
  Ni  Ni12  1  0.563833  0.436167  0.814846  1
  O  O13  1  0.428197  0.571803  0.200290  1
  O  O14  1  0.189797  0.810203  0.436559  1
  O  O15  1  0.689598  0.827763  0.440304  1
  O  O16  1  0.172237  0.310402  0.440304  1
  O  O17  1  0.951239  0.566201  0.196815  1
  O  O18  1  0.433799  0.048761  0.196815  1
  O  O19  1  0.694261  0.305739  0.437036  1
  O  O20  1  0.932067  0.067933  0.193744  1
  O  O21  1  0.196803  0.803197  0.924710  1
  O  O22  1  0.435203  0.564797  0.688441  1
  O  O23  1  0.673761  0.808799  0.928185  1
  O  O24  1  0.191201  0.326239  0.928185  1
  O  O25  1  0.935402  0.547237  0.684696  1
  O  O26  1  0.452763  0.064598  0.684696  1
  O  O27  1  0.930739  0.069261  0.687964  1
  O  O28  1  0.692933  0.307067  0.931256  1
