# generated using pymatgen
data_Fe2(MoO4)3
_symmetry_space_group_name_H-M   'P 1'
_cell_length_a   9.46320511
_cell_length_b   9.54811702
_cell_length_c   13.18288506
_cell_angle_alpha   90.00000000
_cell_angle_beta   90.00000000
_cell_angle_gamma   90.00000000
_symmetry_Int_Tables_number   1
_chemical_formula_structural   Fe2(MoO4)3
_chemical_formula_sum   'Fe8 Mo12 O48'
_cell_volume   1191.14999110
_cell_formula_units_Z   4
loop_
 _symmetry_equiv_pos_site_id
 _symmetry_equiv_pos_as_xyz
  1  'x, y, z'
loop_
 _atom_site_type_symbol
 _atom_site_label
 _atom_site_symmetry_multiplicity
 _atom_site_fract_x
 _atom_site_fract_y
 _atom_site_fract_z
 _atom_site_occupancy
  O  O0  1  0.859780  0.298094  0.168698  1
  O  O1  1  0.859780  0.201905  0.831302  1
  O  O2  1  0.640221  0.798095  0.331302  1
  O  O3  1  0.640221  0.701906  0.668698  1
  O  O4  1  0.140221  0.701906  0.831302  1
  O  O5  1  0.140221  0.798095  0.168698  1
  O  O6  1  0.359779  0.201905  0.668698  1
  O  O7  1  0.359779  0.298094  0.331302  1
  O  O8  1  0.820579  0.070371  0.024653  1
  O  O9  1  0.820579  0.429629  0.975346  1
  O  O10  1  0.679420  0.570371  0.475346  1
  O  O11  1  0.679420  0.929629  0.524653  1
  O  O12  1  0.179421  0.929629  0.975346  1
  O  O13  1  0.179421  0.570371  0.024653  1
  O  O14  1  0.320579  0.429629  0.524653  1
  O  O15  1  0.320579  0.070371  0.475346  1
  O  O16  1  0.416659  0.661775  0.909538  1
  O  O17  1  0.583341  0.161776  0.909538  1
  O  O18  1  0.916659  0.838224  0.409538  1
  O  O19  1  0.916659  0.661775  0.590462  1
  O  O20  1  0.082565  0.090873  0.141566  1
  O  O21  1  0.082565  0.409128  0.858434  1
  O  O22  1  0.417435  0.590872  0.358434  1
  O  O23  1  0.417435  0.909127  0.641566  1
  O  O24  1  0.917434  0.909127  0.858434  1
  O  O25  1  0.917434  0.590872  0.141566  1
  O  O26  1  0.582566  0.409128  0.641566  1
  O  O27  1  0.582566  0.090873  0.358434  1
  O  O28  1  0.364627  0.126869  0.066197  1
  O  O29  1  0.364627  0.373132  0.933803  1
  O  O30  1  0.135373  0.626868  0.433803  1
  O  O31  1  0.135373  0.873131  0.566197  1
  O  O32  1  0.635372  0.873131  0.933803  1
  O  O33  1  0.635372  0.626868  0.066197  1
  O  O34  1  0.864627  0.373132  0.566197  1
  O  O35  1  0.864627  0.126869  0.433803  1
  O  O36  1  0.317801  0.007636  0.258933  1
  O  O37  1  0.317801  0.492363  0.741067  1
  O  O38  1  0.182200  0.507637  0.241067  1
  O  O39  1  0.182200  0.992364  0.758933  1
  O  O40  1  0.682200  0.992364  0.741067  1
  O  O41  1  0.682200  0.507637  0.258933  1
  O  O42  1  0.817801  0.492363  0.758933  1
  O  O43  1  0.817801  0.007636  0.241067  1
  O  O44  1  0.083340  0.338225  0.409538  1
  O  O45  1  0.083340  0.161776  0.590462  1
  O  O46  1  0.416659  0.838224  0.090462  1
  O  O47  1  0.583341  0.338225  0.090462  1
  Fe  Fe48  1  0.249975  0.465851  0.380967  1
  Fe  Fe49  1  0.249975  0.034149  0.619033  1
  Fe  Fe50  1  0.250024  0.965851  0.119033  1
  Fe  Fe51  1  0.250024  0.534149  0.880967  1
  Fe  Fe52  1  0.750025  0.534149  0.619033  1
  Fe  Fe53  1  0.750025  0.965851  0.380967  1
  Fe  Fe54  1  0.749975  0.034149  0.880967  1
  Fe  Fe55  1  0.749975  0.465851  0.119033  1
  Mo  Mo56  1  0.026659  0.750000  0.500000  1
  Mo  Mo57  1  0.526659  0.750000  0.000000  1
  Mo  Mo58  1  0.973342  0.250000  0.500000  1
  Mo  Mo59  1  0.473341  0.250000  0.000000  1
  Mo  Mo60  1  0.394788  0.116326  0.355263  1
  Mo  Mo61  1  0.394788  0.383674  0.644737  1
  Mo  Mo62  1  0.105213  0.616326  0.144737  1
  Mo  Mo63  1  0.105213  0.883674  0.855263  1
  Mo  Mo64  1  0.605212  0.883674  0.644737  1
  Mo  Mo65  1  0.605212  0.616326  0.355263  1
  Mo  Mo66  1  0.894788  0.383674  0.855263  1
  Mo  Mo67  1  0.894788  0.116326  0.144737  1
