# generated using pymatgen
data_Fe2(MoO4)3
_symmetry_space_group_name_H-M   'P 1'
_cell_length_a   10.61837810
_cell_length_b   8.95997734
_cell_length_c   10.42880724
_cell_angle_alpha   90.00000000
_cell_angle_beta   90.00000000
_cell_angle_gamma   90.00000000
_symmetry_Int_Tables_number   1
_chemical_formula_structural   Fe2(MoO4)3
_chemical_formula_sum   'Fe8 Mo12 O48'
_cell_volume   992.20117562
_cell_formula_units_Z   4
loop_
 _symmetry_equiv_pos_site_id
 _symmetry_equiv_pos_as_xyz
  1  'x, y, z'
loop_
 _atom_site_type_symbol
 _atom_site_label
 _atom_site_symmetry_multiplicity
 _atom_site_fract_x
 _atom_site_fract_y
 _atom_site_fract_z
 _atom_site_occupancy
  Fe  Fe0  1  0.108844  0.187852  0.150849  1
  Fe  Fe1  1  0.108844  0.312148  0.849151  1
  Fe  Fe2  1  0.391156  0.687852  0.349151  1
  Fe  Fe3  1  0.391156  0.812148  0.650849  1
  Fe  Fe4  1  0.547126  0.340054  0.302574  1
  Fe  Fe5  1  0.547126  0.159946  0.697426  1
  Fe  Fe6  1  0.952874  0.840054  0.197426  1
  Fe  Fe7  1  0.952874  0.659946  0.802574  1
  Mo  Mo8  1  0.007035  0.029938  0.707678  1
  Mo  Mo9  1  0.007035  0.470062  0.292322  1
  Mo  Mo10  1  0.767087  0.446811  0.565053  1
  Mo  Mo11  1  0.767087  0.053189  0.434947  1
  Mo  Mo12  1  0.732913  0.946811  0.934947  1
  Mo  Mo13  1  0.732913  0.553189  0.065053  1
  Mo  Mo14  1  0.492965  0.529938  0.792322  1
  Mo  Mo15  1  0.492965  0.970062  0.207678  1
  Mo  Mo16  1  0.316344  0.439272  0.085994  1
  Mo  Mo17  1  0.316344  0.060728  0.914006  1
  Mo  Mo18  1  0.183656  0.939272  0.414006  1
  Mo  Mo19  1  0.183656  0.560728  0.585994  1
  O  O20  1  0.152071  0.105682  0.327719  1
  O  O21  1  0.152071  0.394318  0.672281  1
  O  O22  1  0.955848  0.286227  0.255408  1
  O  O23  1  0.955848  0.213773  0.744592  1
  O  O24  1  0.057734  0.678476  0.638996  1
  O  O25  1  0.057734  0.821524  0.361004  1
  O  O26  1  0.467956  0.493789  0.419197  1
  O  O27  1  0.467956  0.006211  0.580803  1
  O  O28  1  0.226061  0.250000  0.000000  1
  O  O29  1  0.348382  0.921749  0.330738  1
  O  O30  1  0.348382  0.578251  0.669262  1
  O  O31  1  0.351389  0.002859  0.080154  1
  O  O32  1  0.351389  0.497141  0.919846  1
  O  O33  1  0.148611  0.997141  0.580154  1
  O  O34  1  0.148611  0.502859  0.419846  1
  O  O35  1  0.151618  0.078251  0.830738  1
  O  O36  1  0.151618  0.421749  0.169262  1
  O  O37  1  0.273939  0.750000  0.500000  1
  O  O38  1  0.032044  0.506211  0.919197  1
  O  O39  1  0.032044  0.993789  0.080803  1
  O  O40  1  0.442266  0.178476  0.861004  1
  O  O41  1  0.442266  0.321524  0.138996  1
  O  O42  1  0.544152  0.713773  0.755408  1
  O  O43  1  0.544152  0.786227  0.244592  1
  O  O44  1  0.347929  0.605682  0.172281  1
  O  O45  1  0.347929  0.894318  0.827719  1
  O  O46  1  0.393939  0.141247  0.603236  1
  O  O47  1  0.393939  0.358753  0.396764  1
  O  O48  1  0.598699  0.550383  0.958060  1
  O  O49  1  0.598699  0.949617  0.041939  1
  O  O50  1  0.913727  0.882363  0.793187  1
  O  O51  1  0.913727  0.617637  0.206813  1
  O  O52  1  0.699091  0.250000  0.500000  1
  O  O53  1  0.830603  0.524138  0.712464  1
  O  O54  1  0.830603  0.975862  0.287536  1
  O  O55  1  0.678644  0.585501  0.498112  1
  O  O56  1  0.678644  0.914499  0.501888  1
  O  O57  1  0.821356  0.414499  0.998112  1
  O  O58  1  0.821356  0.085501  0.001888  1
  O  O59  1  0.669397  0.024138  0.787536  1
  O  O60  1  0.669397  0.475862  0.212464  1
  O  O61  1  0.800909  0.750000  0.000000  1
  O  O62  1  0.586273  0.117637  0.293187  1
  O  O63  1  0.586273  0.382363  0.706813  1
  O  O64  1  0.901301  0.050383  0.541940  1
  O  O65  1  0.901301  0.449617  0.458060  1
  O  O66  1  0.106061  0.641247  0.896764  1
  O  O67  1  0.106061  0.858753  0.103236  1
