# generated using pymatgen
data_Fe2Mo4C
_symmetry_space_group_name_H-M   'P 1'
_cell_length_a   8.00928990
_cell_length_b   8.02267357
_cell_length_c   8.00944300
_cell_angle_alpha   60.05430923
_cell_angle_beta   59.99882623
_cell_angle_gamma   60.05478980
_symmetry_Int_Tables_number   1
_chemical_formula_structural   Fe2Mo4C
_chemical_formula_sum   'Fe8 Mo16 C4'
_cell_volume   364.21194419
_cell_formula_units_Z   4
loop_
 _symmetry_equiv_pos_site_id
 _symmetry_equiv_pos_as_xyz
  1  'x, y, z'
loop_
 _atom_site_type_symbol
 _atom_site_label
 _atom_site_symmetry_multiplicity
 _atom_site_fract_x
 _atom_site_fract_y
 _atom_site_fract_z
 _atom_site_occupancy
  Fe  Fe0  1  0.618787  0.293857  0.293678  1
  Fe  Fe1  1  0.706111  0.381692  0.706100  1
  Fe  Fe2  1  0.381151  0.706172  0.706338  1
  Fe  Fe3  1  0.293640  0.293817  0.618895  1
  Fe  Fe4  1  0.706412  0.706223  0.706424  1
  Fe  Fe5  1  0.293632  0.293795  0.293630  1
  Fe  Fe6  1  0.706379  0.706201  0.381021  1
  Fe  Fe7  1  0.293881  0.618332  0.293893  1
  Mo  Mo8  1  0.499866  0.500035  0.000048  1
  Mo  Mo9  1  0.313829  0.936075  0.936264  1
  Mo  Mo10  1  0.313810  0.936109  0.313821  1
  Mo  Mo11  1  0.063941  0.686089  0.686015  1
  Mo  Mo12  1  0.313997  0.313926  0.936059  1
  Mo  Mo13  1  0.686200  0.063857  0.063750  1
  Mo  Mo14  1  0.063932  0.686093  0.063955  1
  Mo  Mo15  1  0.936276  0.935991  0.313871  1
  Mo  Mo16  1  0.686197  0.063868  0.686185  1
  Mo  Mo17  1  0.499961  -0.000011  0.500003  1
  Mo  Mo18  1  0.936074  0.313939  0.935972  1
  Mo  Mo19  1  0.936119  0.313914  0.313999  1
  Mo  Mo20  1  0.499882  0.500058  0.500033  1
  Mo  Mo21  1  0.686058  0.686115  0.063917  1
  Mo  Mo22  1  0.063735  0.063852  0.686205  1
  Mo  Mo23  1  0.000110  0.500033  0.499910  1
  C  C24  1  0.499986  0.000040  -0.000013  1
  C  C25  1  0.000053  0.499945  -0.000007  1
  C  C26  1  -0.000011  -0.000019  0.499969  1
  C  C27  1  -0.000008  0.000001  0.000067  1
