# generated using pymatgen
data_Fe2WO6
_symmetry_space_group_name_H-M   'P 1'
_cell_length_a   4.62486800
_cell_length_b   5.07373490
_cell_length_c   16.96556326
_cell_angle_alpha   90.00000000
_cell_angle_beta   90.00000000
_cell_angle_gamma   90.00000000
_symmetry_Int_Tables_number   1
_chemical_formula_structural   Fe2WO6
_chemical_formula_sum   'Fe8 W4 O24'
_cell_volume   398.10295075
_cell_formula_units_Z   4
loop_
 _symmetry_equiv_pos_site_id
 _symmetry_equiv_pos_as_xyz
  1  'x, y, z'
loop_
 _atom_site_type_symbol
 _atom_site_label
 _atom_site_symmetry_multiplicity
 _atom_site_fract_x
 _atom_site_fract_y
 _atom_site_fract_z
 _atom_site_occupancy
  O  O0  1  0.724893  0.916046  0.202745  1
  O  O1  1  0.224892  0.083955  0.297255  1
  O  O2  1  0.775107  0.416046  0.297255  1
  O  O3  1  0.275109  0.583955  0.202745  1
  O  O4  1  0.275109  0.083955  0.797255  1
  O  O5  1  0.775107  0.916046  0.702744  1
  O  O6  1  0.224892  0.583955  0.702744  1
  O  O7  1  0.724893  0.416046  0.797255  1
  O  O8  1  0.726548  0.430025  0.125896  1
  O  O9  1  0.226547  0.569975  0.374104  1
  O  O10  1  0.773452  0.930025  0.374104  1
  O  O11  1  0.273454  0.069975  0.125896  1
  O  O12  1  0.763759  0.406600  0.959098  1
  O  O13  1  0.263761  0.593400  0.540902  1
  O  O14  1  0.736241  0.906599  0.540902  1
  O  O15  1  0.236240  0.093400  0.959098  1
  O  O16  1  0.236240  0.593400  0.040902  1
  O  O17  1  0.736241  0.406600  0.459098  1
  O  O18  1  0.273454  0.569975  0.874104  1
  O  O19  1  0.763759  0.906599  0.040902  1
  O  O20  1  0.726548  0.930025  0.874104  1
  O  O21  1  0.226547  0.069975  0.625896  1
  O  O22  1  0.773452  0.430025  0.625896  1
  O  O23  1  0.263761  0.093400  0.459098  1
  Fe  Fe24  1  0.000000  0.749999  0.947200  1
  Fe  Fe25  1  0.500001  0.249999  0.552800  1
  Fe  Fe26  1  0.000000  0.249999  0.052800  1
  Fe  Fe27  1  0.500001  0.749999  0.447200  1
  Fe  Fe28  1  0.500001  0.749999  0.777682  1
  Fe  Fe29  1  0.000000  0.249999  0.722319  1
  Fe  Fe30  1  0.000000  0.749999  0.277681  1
  Fe  Fe31  1  0.500001  0.249999  0.222319  1
  W  W32  1  0.000000  0.749999  0.615657  1
  W  W33  1  0.500001  0.249999  0.884343  1
  W  W34  1  0.000000  0.249999  0.384343  1
  W  W35  1  0.500001  0.749999  0.115657  1
