# generated using pymatgen
data_Fe9Cu3O16
_symmetry_space_group_name_H-M   'P 1'
_cell_length_a   6.01963475
_cell_length_b   12.06356054
_cell_length_c   10.36054273
_cell_angle_alpha   30.14182200
_cell_angle_beta   55.29540778
_cell_angle_gamma   60.38729651
_symmetry_Int_Tables_number   1
_chemical_formula_structural   Fe9Cu3O16
_chemical_formula_sum   'Fe9 Cu3 O16'
_cell_volume   310.58079395
_cell_formula_units_Z   1
loop_
 _symmetry_equiv_pos_site_id
 _symmetry_equiv_pos_as_xyz
  1  'x, y, z'
loop_
 _atom_site_type_symbol
 _atom_site_label
 _atom_site_symmetry_multiplicity
 _atom_site_fract_x
 _atom_site_fract_y
 _atom_site_fract_z
 _atom_site_occupancy
  Fe  Fe0  1  0.008234  0.005104  0.995680  1
  Fe  Fe1  1  0.245403  0.996651  0.250348  1
  Fe  Fe2  1  0.004597  0.503349  0.999652  1
  Fe  Fe3  1  0.120281  0.996673  0.631851  1
  Fe  Fe4  1  0.241766  0.494896  0.254320  1
  Fe  Fe5  1  0.625000  0.250000  0.125000  1
  Fe  Fe6  1  0.129719  0.503327  0.618149  1
  Fe  Fe7  1  0.625000  0.250000  0.625000  1
  Fe  Fe8  1  0.625000  0.750000  0.625000  1
  Cu  Cu9  1  0.623189  0.997335  0.630261  1
  Cu  Cu10  1  0.625000  0.750000  0.125000  1
  Cu  Cu11  1  0.626811  0.502665  0.619739  1
  O  O12  1  0.384087  0.001289  0.380541  1
  O  O13  1  0.378411  0.237377  0.376244  1
  O  O14  1  0.852740  0.998908  0.378783  1
  O  O15  1  0.371356  0.488121  0.395336  1
  O  O16  1  0.366168  0.736017  0.389792  1
  O  O17  1  0.374008  0.258731  0.857732  1
  O  O18  1  0.875992  0.241269  0.392268  1
  O  O19  1  0.856231  0.494577  0.383033  1
  O  O20  1  0.397260  0.501092  0.871217  1
  O  O21  1  0.374725  0.757647  0.857679  1
  O  O22  1  0.871589  0.262623  0.873756  1
  O  O23  1  0.875275  0.742353  0.392321  1
  O  O24  1  0.865913  0.498711  0.869459  1
  O  O25  1  0.393769  0.005423  0.866967  1
  O  O26  1  0.883832  0.763983  0.860208  1
  O  O27  1  0.878644  0.011879  0.854664  1
