# generated using pymatgen
data_Fe9Cu3O16
_symmetry_space_group_name_H-M   'P 1'
_cell_length_a   5.85702378
_cell_length_b   5.87923874
_cell_length_c   8.33928632
_cell_angle_alpha   90.43885690
_cell_angle_beta   90.00322100
_cell_angle_gamma   90.01392710
_symmetry_Int_Tables_number   1
_chemical_formula_structural   Fe9Cu3O16
_chemical_formula_sum   'Fe9 Cu3 O16'
_cell_volume   287.15356694
_cell_formula_units_Z   1
loop_
 _symmetry_equiv_pos_site_id
 _symmetry_equiv_pos_as_xyz
  1  'x, y, z'
loop_
 _atom_site_type_symbol
 _atom_site_label
 _atom_site_symmetry_multiplicity
 _atom_site_fract_x
 _atom_site_fract_y
 _atom_site_fract_z
 _atom_site_occupancy
  Fe  Fe0  1  0.000649  0.998001  0.997506  1
  Fe  Fe1  1  0.254165  0.501460  0.122558  1
  Fe  Fe2  1  0.746838  0.501715  0.122442  1
  Fe  Fe3  1  0.999736  0.250796  0.377513  1
  Fe  Fe4  1  0.999882  0.750266  0.375494  1
  Fe  Fe5  1  0.749477  0.997576  0.625921  1
  Fe  Fe6  1  0.250379  0.998729  0.625991  1
  Fe  Fe7  1  0.500141  0.253186  0.875955  1
  Fe  Fe8  1  0.499630  0.747267  0.875517  1
  Cu  Cu9  1  0.499705  0.998225  0.253365  1
  Cu  Cu10  1  0.499971  0.500219  0.501740  1
  Cu  Cu11  1  0.000147  0.502666  0.747056  1
  O  O12  1  0.499334  0.724102  0.109280  1
  O  O13  1  0.500363  0.276580  0.110565  1
  O  O14  1  0.000766  0.267834  0.128066  1
  O  O15  1  0.001433  0.730542  0.131995  1
  O  O16  1  0.226575  0.506640  0.356628  1
  O  O17  1  0.771731  0.506472  0.357842  1
  O  O18  1  0.771347  0.994979  0.391358  1
  O  O19  1  0.227162  0.992883  0.389389  1
  O  O20  1  0.999152  0.776389  0.611242  1
  O  O21  1  0.001708  0.218904  0.618831  1
  O  O22  1  0.499609  0.224552  0.642216  1
  O  O23  1  0.498968  0.778340  0.641749  1
  O  O24  1  0.729621  0.998168  0.866455  1
  O  O25  1  0.270648  0.999108  0.866542  1
  O  O26  1  0.278210  0.501285  0.887618  1
  O  O27  1  0.722655  0.503115  0.889166  1
