# generated using pymatgen
data_Gd5Y3O12
_symmetry_space_group_name_H-M   'P 1'
_cell_length_a   9.35625319
_cell_length_b   9.35625319
_cell_length_c   9.35625319
_cell_angle_alpha   109.48841437
_cell_angle_beta   109.43328521
_cell_angle_gamma   109.49196900
_symmetry_Int_Tables_number   1
_chemical_formula_structural   Gd5Y3O12
_chemical_formula_sum   'Gd10 Y6 O24'
_cell_volume   630.49821749
_cell_formula_units_Z   2
loop_
 _symmetry_equiv_pos_site_id
 _symmetry_equiv_pos_as_xyz
  1  'x, y, z'
loop_
 _atom_site_type_symbol
 _atom_site_label
 _atom_site_symmetry_multiplicity
 _atom_site_fract_x
 _atom_site_fract_y
 _atom_site_fract_z
 _atom_site_occupancy
  Gd  Gd0  1  0.966490  0.250000  0.216490  1
  Gd  Gd1  1  0.750000  0.782478  0.032478  1
  Gd  Gd2  1  0.750000  0.282033  0.532033  1
  Gd  Gd3  1  0.468161  0.250000  0.718161  1
  Gd  Gd4  1  0.533510  0.750000  0.283510  1
  Gd  Gd5  1  0.250000  0.717522  0.467522  1
  Gd  Gd6  1  0.250000  0.217967  0.967967  1
  Gd  Gd7  1  0.282406  0.532406  0.750000  1
  Gd  Gd8  1  0.217594  0.967594  0.250000  1
  Gd  Gd9  1  0.031839  0.750000  0.781839  1
  Y  Y10  1  0.500595  0.000799  0.999514  1
  Y  Y11  1  0.783292  0.033292  0.750000  1
  Y  Y12  1  0.716708  0.466708  0.250000  1
  Y  Y13  1  0.998715  0.499201  0.999796  1
  Y  Y14  1  0.999405  0.998919  0.500204  1
  Y  Y15  1  0.501285  0.501081  0.500486  1
  O  O16  1  0.763513  0.031638  0.491141  1
  O  O17  1  0.736487  0.227628  0.268125  1
  O  O18  1  0.273331  0.010597  0.041784  1
  O  O19  1  0.966104  0.510389  0.237401  1
  O  O20  1  0.772988  0.728703  0.262599  1
  O  O21  1  0.468814  0.231547  0.458216  1
  O  O22  1  0.040497  0.272372  0.008859  1
  O  O23  1  0.459503  0.468362  0.231875  1
  O  O24  1  0.769330  0.541862  0.529206  1
  O  O25  1  0.730670  0.259876  0.772532  1
  O  O26  1  0.490336  0.763584  0.032021  1
  O  O27  1  0.009664  0.041685  0.273249  1
  O  O28  1  0.268437  0.736416  0.226751  1
  O  O29  1  0.231563  0.458315  0.467979  1
  O  O30  1  0.987344  0.958138  0.727468  1
  O  O31  1  0.512656  0.240124  0.970794  1
  O  O32  1  0.542225  0.531399  0.768677  1
  O  O33  1  0.957775  0.726452  0.989173  1
  O  O34  1  0.533896  0.771297  0.544285  1
  O  O35  1  0.226669  0.268453  0.737267  1
  O  O36  1  0.727012  0.989611  0.955715  1
  O  O37  1  0.031186  0.489403  0.762733  1
  O  O38  1  0.237279  0.968601  0.510827  1
  O  O39  1  0.262721  0.773548  0.731323  1
