# generated using pymatgen
data_Gd3NbO7
_symmetry_space_group_name_H-M   'P 1'
_cell_length_a   7.58103193
_cell_length_b   10.76848685
_cell_length_c   7.56820901
_cell_angle_alpha   90.07348099
_cell_angle_beta   89.99909570
_cell_angle_gamma   89.99906700
_symmetry_Int_Tables_number   1
_chemical_formula_structural   Gd3NbO7
_chemical_formula_sum   'Gd12 Nb4 O28'
_cell_volume   617.83963911
_cell_formula_units_Z   4
loop_
 _symmetry_equiv_pos_site_id
 _symmetry_equiv_pos_as_xyz
  1  'x, y, z'
loop_
 _atom_site_type_symbol
 _atom_site_label
 _atom_site_symmetry_multiplicity
 _atom_site_fract_x
 _atom_site_fract_y
 _atom_site_fract_z
 _atom_site_occupancy
  Gd  Gd0  1  0.010434  0.249901  0.791346  1
  Gd  Gd1  1  0.248982  0.521435  0.962172  1
  Gd  Gd2  1  0.248889  0.978538  0.962107  1
  Gd  Gd3  1  0.251022  0.021435  0.462184  1
  Gd  Gd4  1  0.251114  0.478534  0.462100  1
  Gd  Gd5  1  0.489567  0.749954  0.291303  1
  Gd  Gd6  1  0.510433  0.250046  0.708708  1
  Gd  Gd7  1  0.748883  0.521469  0.537903  1
  Gd  Gd8  1  0.748983  0.978564  0.537819  1
  Gd  Gd9  1  0.751106  0.021461  0.037887  1
  Gd  Gd10  1  0.751016  0.478563  0.037830  1
  Gd  Gd11  1  0.989558  0.750101  0.208661  1
  Nb  Nb12  1  0.997426  0.749996  0.743401  1
  Nb  Nb13  1  0.502607  0.249911  0.243467  1
  Nb  Nb14  1  0.497391  0.750091  0.756537  1
  Nb  Nb15  1  0.002579  0.250001  0.256606  1
  O  O16  1  0.034979  0.124853  0.047740  1
  O  O17  1  0.034955  0.374906  0.047435  1
  O  O18  1  0.040859  0.614067  0.581034  1
  O  O19  1  0.040833  0.885778  0.580768  1
  O  O20  1  0.248631  0.250133  0.330749  1
  O  O21  1  0.253444  0.117076  0.729726  1
  O  O22  1  0.253396  0.382810  0.729179  1
  O  O23  1  0.246560  0.617123  0.229682  1
  O  O24  1  0.246618  0.882859  0.229137  1
  O  O25  1  0.251377  0.750208  0.830811  1
  O  O26  1  0.459177  0.114043  0.081039  1
  O  O27  1  0.459169  0.385790  0.080766  1
  O  O28  1  0.464996  0.624883  0.547749  1
  O  O29  1  0.465043  0.874910  0.547425  1
  O  O30  1  0.534959  0.125094  0.452585  1
  O  O31  1  0.534991  0.375122  0.452259  1
  O  O32  1  0.540838  0.614203  0.919224  1
  O  O33  1  0.540850  0.885958  0.918950  1
  O  O34  1  0.748624  0.249802  0.169202  1
  O  O35  1  0.753403  0.117130  0.770870  1
  O  O36  1  0.753468  0.382864  0.770321  1
  O  O37  1  0.746577  0.617194  0.270817  1
  O  O38  1  0.746526  0.882942  0.270264  1
  O  O39  1  0.751373  0.749860  0.669237  1
  O  O40  1  0.959167  0.114220  0.419228  1
  O  O41  1  0.959153  0.385939  0.418954  1
  O  O42  1  0.965047  0.625089  0.952562  1
  O  O43  1  0.964999  0.875144  0.952255  1
