# generated using pymatgen
data_Gd3ReO8
_symmetry_space_group_name_H-M   'P 1'
_cell_length_a   6.10584372
_cell_length_b   7.37097054
_cell_length_c   13.87212539
_cell_angle_alpha   98.35413560
_cell_angle_beta   90.00000000
_cell_angle_gamma   90.00000000
_symmetry_Int_Tables_number   1
_chemical_formula_structural   Gd3ReO8
_chemical_formula_sum   'Gd12 Re4 O32'
_cell_volume   617.70401250
_cell_formula_units_Z   4
loop_
 _symmetry_equiv_pos_site_id
 _symmetry_equiv_pos_as_xyz
  1  'x, y, z'
loop_
 _atom_site_type_symbol
 _atom_site_label
 _atom_site_symmetry_multiplicity
 _atom_site_fract_x
 _atom_site_fract_y
 _atom_site_fract_z
 _atom_site_occupancy
  O  O0  1  0.471573  0.693816  0.841209  1
  O  O1  1  0.971573  0.806184  0.658791  1
  O  O2  1  0.528427  0.306184  0.158791  1
  O  O3  1  0.028427  0.193816  0.341209  1
  O  O4  1  0.471848  0.858797  0.673021  1
  O  O5  1  0.971848  0.641203  0.826979  1
  O  O6  1  0.528152  0.141203  0.326979  1
  O  O7  1  0.028152  0.358797  0.173021  1
  O  O8  1  0.196480  0.954639  0.479522  1
  O  O9  1  0.696480  0.545361  0.020478  1
  O  O10  1  0.803520  0.045361  0.520478  1
  O  O11  1  0.303520  0.454639  0.979522  1
  O  O12  1  0.552341  0.790209  0.411632  1
  O  O13  1  0.052341  0.709791  0.088368  1
  O  O14  1  0.447659  0.209791  0.588368  1
  O  O15  1  0.947659  0.290209  0.911632  1
  O  O16  1  0.543358  0.152315  0.903638  1
  O  O17  1  0.043358  0.347685  0.596362  1
  O  O18  1  0.456642  0.847685  0.096362  1
  O  O19  1  0.956642  0.652315  0.403638  1
  O  O20  1  0.294643  0.318502  0.787688  1
  O  O21  1  0.794643  0.181498  0.712312  1
  O  O22  1  0.705357  0.681498  0.212312  1
  O  O23  1  0.205357  0.818502  0.287688  1
  O  O24  1  0.196337  0.106768  0.018914  1
  O  O25  1  0.696337  0.393232  0.481086  1
  O  O26  1  0.803663  0.893232  0.981086  1
  O  O27  1  0.303663  0.606768  0.518914  1
  O  O28  1  0.148083  0.998914  0.830451  1
  O  O29  1  0.648083  0.501086  0.669549  1
  O  O30  1  0.851917  0.001086  0.169549  1
  O  O31  1  0.351917  0.498914  0.330451  1
  Gd  Gd32  1  0.799116  0.214941  0.054670  1
  Gd  Gd33  1  0.299116  0.285059  0.445330  1
  Gd  Gd34  1  0.200884  0.785059  0.945330  1
  Gd  Gd35  1  0.700884  0.714941  0.554670  1
  Gd  Gd36  1  0.241445  0.606039  0.701456  1
  Gd  Gd37  1  0.741445  0.893961  0.798544  1
  Gd  Gd38  1  0.758555  0.393960  0.298544  1
  Gd  Gd39  1  0.258555  0.106039  0.201456  1
  Gd  Gd40  1  0.690741  0.439766  0.832580  1
  Gd  Gd41  1  0.190741  0.060234  0.667420  1
  Gd  Gd42  1  0.309259  0.560234  0.167420  1
  Gd  Gd43  1  0.809259  0.939766  0.332580  1
  Re  Re44  1  0.246134  0.230966  0.909703  1
  Re  Re45  1  0.746134  0.269034  0.590297  1
  Re  Re46  1  0.753866  0.769034  0.090297  1
  Re  Re47  1  0.253866  0.730966  0.409703  1
