# generated using pymatgen
data_Gd3TaO7
_symmetry_space_group_name_H-M   'P 1'
_cell_length_a   7.57195086
_cell_length_b   10.75702640
_cell_length_c   7.61344179
_cell_angle_alpha   90.00000000
_cell_angle_beta   90.00000000
_cell_angle_gamma   90.00000000
_symmetry_Int_Tables_number   1
_chemical_formula_structural   Gd3TaO7
_chemical_formula_sum   'Gd12 Ta4 O28'
_cell_volume   620.12758860
_cell_formula_units_Z   4
loop_
 _symmetry_equiv_pos_site_id
 _symmetry_equiv_pos_as_xyz
  1  'x, y, z'
loop_
 _atom_site_type_symbol
 _atom_site_label
 _atom_site_symmetry_multiplicity
 _atom_site_fract_x
 _atom_site_fract_y
 _atom_site_fract_z
 _atom_site_occupancy
  Gd  Gd0  1  0.011490  0.250000  0.791403  1
  Gd  Gd1  1  0.252210  0.520182  0.965919  1
  Gd  Gd2  1  0.252210  0.979818  0.965919  1
  Gd  Gd3  1  0.247790  0.020182  0.465919  1
  Gd  Gd4  1  0.247790  0.479818  0.465919  1
  Gd  Gd5  1  0.488510  0.750000  0.291403  1
  Gd  Gd6  1  0.511490  0.250000  0.708597  1
  Gd  Gd7  1  0.752210  0.520182  0.534081  1
  Gd  Gd8  1  0.752210  0.979818  0.534081  1
  Gd  Gd9  1  0.747790  0.020182  0.034081  1
  Gd  Gd10  1  0.747790  0.479818  0.034081  1
  Gd  Gd11  1  0.988510  0.750000  0.208597  1
  Ta  Ta12  1  0.998787  0.750000  0.748733  1
  Ta  Ta13  1  0.501213  0.250000  0.248733  1
  Ta  Ta14  1  0.498787  0.750000  0.751267  1
  Ta  Ta15  1  0.001213  0.250000  0.251267  1
  O  O16  1  0.034197  0.125657  0.048737  1
  O  O17  1  0.034197  0.374343  0.048737  1
  O  O18  1  0.037903  0.614464  0.583242  1
  O  O19  1  0.037903  0.885536  0.583242  1
  O  O20  1  0.248151  0.250000  0.326237  1
  O  O21  1  0.254793  0.116744  0.731602  1
  O  O22  1  0.254793  0.383256  0.731602  1
  O  O23  1  0.245207  0.616744  0.231602  1
  O  O24  1  0.245207  0.883256  0.231602  1
  O  O25  1  0.251849  0.750000  0.826237  1
  O  O26  1  0.462097  0.114464  0.083242  1
  O  O27  1  0.462097  0.385536  0.083242  1
  O  O28  1  0.465803  0.625657  0.548737  1
  O  O29  1  0.465803  0.874343  0.548737  1
  O  O30  1  0.534197  0.125657  0.451263  1
  O  O31  1  0.534197  0.374343  0.451263  1
  O  O32  1  0.537903  0.614464  0.916758  1
  O  O33  1  0.537903  0.885536  0.916758  1
  O  O34  1  0.748151  0.250000  0.173763  1
  O  O35  1  0.754793  0.116744  0.768398  1
  O  O36  1  0.754793  0.383256  0.768398  1
  O  O37  1  0.745207  0.616744  0.268398  1
  O  O38  1  0.745207  0.883256  0.268398  1
  O  O39  1  0.751849  0.750000  0.673763  1
  O  O40  1  0.962097  0.114464  0.416758  1
  O  O41  1  0.962097  0.385536  0.416758  1
  O  O42  1  0.965803  0.625657  0.951263  1
  O  O43  1  0.965803  0.874343  0.951263  1
