# generated using pymatgen
data_Gd2(FeB)7
_symmetry_space_group_name_H-M   'P 1'
_cell_length_a   7.00568453
_cell_length_b   6.98852794
_cell_length_c   27.03721212
_cell_angle_alpha   90.00000000
_cell_angle_beta   90.00000000
_cell_angle_gamma   90.00000000
_symmetry_Int_Tables_number   1
_chemical_formula_structural   Gd2(FeB)7
_chemical_formula_sum   'Gd16 Fe56 B56'
_cell_volume   1323.72627996
_cell_formula_units_Z   8
loop_
 _symmetry_equiv_pos_site_id
 _symmetry_equiv_pos_as_xyz
  1  'x, y, z'
loop_
 _atom_site_type_symbol
 _atom_site_label
 _atom_site_symmetry_multiplicity
 _atom_site_fract_x
 _atom_site_fract_y
 _atom_site_fract_z
 _atom_site_occupancy
  Gd  Gd0  1  0.750000  0.250000  0.156363  1
  Gd  Gd1  1  0.750000  0.250000  0.406109  1
  Gd  Gd2  1  0.750000  0.250000  0.656363  1
  Gd  Gd3  1  0.250000  0.750000  0.843637  1
  Gd  Gd4  1  0.750000  0.250000  0.031311  1
  Gd  Gd5  1  0.750000  0.250000  0.281296  1
  Gd  Gd6  1  0.250000  0.750000  0.718704  1
  Gd  Gd7  1  0.250000  0.750000  0.593891  1
  Gd  Gd8  1  0.250000  0.750000  0.343637  1
  Gd  Gd9  1  0.250000  0.750000  0.218704  1
  Gd  Gd10  1  0.750000  0.250000  0.531311  1
  Gd  Gd11  1  0.250000  0.750000  0.468689  1
  Gd  Gd12  1  0.250000  0.750000  0.968689  1
  Gd  Gd13  1  0.250000  0.750000  0.093891  1
  Gd  Gd14  1  0.750000  0.250000  0.781296  1
  Gd  Gd15  1  0.750000  0.250000  0.906109  1
  Fe  Fe16  1  0.881041  0.865585  0.266744  1
  Fe  Fe17  1  0.377323  0.366776  0.449150  1
  Fe  Fe18  1  0.617130  0.863544  0.908551  1
  Fe  Fe19  1  0.135963  0.382999  0.662150  1
  Fe  Fe20  1  0.118959  0.365585  0.233256  1
  Fe  Fe21  1  0.864288  0.881088  0.979520  1
  Fe  Fe22  1  0.128834  0.126889  0.877169  1
  Fe  Fe23  1  0.128834  0.373111  0.377169  1
  Fe  Fe24  1  0.371166  0.126889  0.377169  1
  Fe  Fe25  1  0.368690  0.376238  0.305048  1
  Fe  Fe26  1  0.364288  0.118912  0.520480  1
  Fe  Fe27  1  0.864288  0.618912  0.479520  1
  Fe  Fe28  1  0.628834  0.626889  0.122831  1
  Fe  Fe29  1  0.122677  0.366776  0.949150  1
  Fe  Fe30  1  0.368690  0.123762  0.805048  1
  Fe  Fe31  1  0.635712  0.881088  0.479520  1
  Fe  Fe32  1  0.618959  0.865585  0.766744  1
  Fe  Fe33  1  0.381041  0.365585  0.733256  1
  Fe  Fe34  1  0.864037  0.617001  0.337850  1
  Fe  Fe35  1  0.118959  0.134415  0.733256  1
  Fe  Fe36  1  0.882870  0.863544  0.408551  1
  Fe  Fe37  1  0.377323  0.133224  0.949150  1
  Fe  Fe38  1  0.364288  0.381088  0.020480  1
  Fe  Fe39  1  0.122677  0.133224  0.449150  1
  Fe  Fe40  1  0.382870  0.136456  0.091449  1
  Fe  Fe41  1  0.381041  0.134415  0.233256  1
  Fe  Fe42  1  0.882870  0.636456  0.908551  1
  Fe  Fe43  1  0.131310  0.123762  0.305048  1
  Fe  Fe44  1  0.364037  0.117001  0.662150  1
  Fe  Fe45  1  0.877323  0.866776  0.550850  1
  Fe  Fe46  1  0.635963  0.617001  0.837850  1
  Fe  Fe47  1  0.131310  0.376238  0.805048  1
  Fe  Fe48  1  0.135712  0.381088  0.520480  1
  Fe  Fe49  1  0.618959  0.634415  0.266744  1
  Fe  Fe50  1  0.371166  0.373111  0.877169  1
  Fe  Fe51  1  0.364037  0.382999  0.162150  1
  Fe  Fe52  1  0.135712  0.118912  0.020480  1
  Fe  Fe53  1  0.631310  0.623762  0.694952  1
  Fe  Fe54  1  0.877323  0.633224  0.050850  1
  Fe  Fe55  1  0.635963  0.882999  0.337850  1
  Fe  Fe56  1  0.135963  0.117001  0.162150  1
  Fe  Fe57  1  0.117130  0.363544  0.091449  1
  Fe  Fe58  1  0.871166  0.626889  0.622831  1
  Fe  Fe59  1  0.622677  0.866776  0.050850  1
  Fe  Fe60  1  0.382870  0.363544  0.591449  1
  Fe  Fe61  1  0.622677  0.633224  0.550850  1
  Fe  Fe62  1  0.628834  0.873111  0.622831  1
  Fe  Fe63  1  0.617130  0.636456  0.408551  1
  Fe  Fe64  1  0.864037  0.882999  0.837850  1
  Fe  Fe65  1  0.868690  0.876238  0.694952  1
  Fe  Fe66  1  0.631310  0.876238  0.194952  1
  Fe  Fe67  1  0.881041  0.634415  0.766744  1
  Fe  Fe68  1  0.117130  0.136456  0.591449  1
  Fe  Fe69  1  0.868690  0.623762  0.194952  1
  Fe  Fe70  1  0.871166  0.873111  0.122831  1
  Fe  Fe71  1  0.635712  0.618912  0.979520  1
  B  B72  1  0.922122  0.933840  0.622627  1
  B  B73  1  0.439709  0.422246  0.233582  1
  B  B74  1  0.919356  0.947919  0.337691  1
  B  B75  1  0.580644  0.947919  0.837691  1
  B  B76  1  0.422122  0.066160  0.877373  1
  B  B77  1  0.057993  0.081972  0.949226  1
  B  B78  1  0.073138  0.069968  0.805474  1
  B  B79  1  0.422122  0.433840  0.377373  1
  B  B80  1  0.557993  0.918028  0.550774  1
  B  B81  1  0.580644  0.552081  0.337691  1
  B  B82  1  0.939709  0.922246  0.766418  1
  B  B83  1  0.426862  0.430032  0.805474  1
  B  B84  1  0.077878  0.066160  0.377373  1
  B  B85  1  0.450828  0.417189  0.091592  1
  B  B86  1  0.049172  0.082811  0.091592  1
  B  B87  1  0.919356  0.552081  0.837691  1
  B  B88  1  0.049172  0.417189  0.591592  1
  B  B89  1  0.060291  0.077754  0.233582  1
  B  B90  1  0.439709  0.077754  0.733582  1
  B  B91  1  0.080644  0.447919  0.162309  1
  B  B92  1  0.926862  0.930032  0.194526  1
  B  B93  1  0.557993  0.581972  0.050774  1
  B  B94  1  0.419356  0.052081  0.162309  1
  B  B95  1  0.073138  0.430032  0.305474  1
  B  B96  1  0.560291  0.577754  0.766418  1
  B  B97  1  0.916826  0.550979  0.979597  1
  B  B98  1  0.549172  0.582811  0.908408  1
  B  B99  1  0.926862  0.569968  0.694526  1
  B  B100  1  0.922122  0.566160  0.122627  1
  B  B101  1  0.549172  0.917189  0.408408  1
  B  B102  1  0.583174  0.949021  0.979597  1
  B  B103  1  0.577878  0.566160  0.622627  1
  B  B104  1  0.573138  0.569968  0.194526  1
  B  B105  1  0.450828  0.082811  0.591592  1
  B  B106  1  0.419356  0.447919  0.662309  1
  B  B107  1  0.442007  0.081972  0.449226  1
  B  B108  1  0.442007  0.418028  0.949226  1
  B  B109  1  0.426862  0.069968  0.305474  1
  B  B110  1  0.950828  0.917189  0.908408  1
  B  B111  1  0.577878  0.933840  0.122627  1
  B  B112  1  0.060291  0.422246  0.733582  1
  B  B113  1  0.942007  0.581972  0.550774  1
  B  B114  1  0.916826  0.949021  0.479597  1
  B  B115  1  0.083174  0.050979  0.520403  1
  B  B116  1  0.077878  0.433840  0.877373  1
  B  B117  1  0.583174  0.550979  0.479597  1
  B  B118  1  0.573138  0.930032  0.694526  1
  B  B119  1  0.083174  0.449021  0.020403  1
  B  B120  1  0.416826  0.050979  0.020403  1
  B  B121  1  0.080644  0.052081  0.662309  1
  B  B122  1  0.560291  0.922246  0.266418  1
  B  B123  1  0.416826  0.449021  0.520403  1
  B  B124  1  0.942007  0.918028  0.050774  1
  B  B125  1  0.950828  0.582811  0.408408  1
  B  B126  1  0.939709  0.577754  0.266418  1
  B  B127  1  0.057993  0.418028  0.449226  1
