# generated using pymatgen
data_Gd4Mo7O27
_symmetry_space_group_name_H-M   'P 1'
_cell_length_a   13.82538479
_cell_length_b   13.82538415
_cell_length_c   14.56225261
_cell_angle_alpha   77.41160532
_cell_angle_beta   77.41160593
_cell_angle_gamma   65.23684543
_symmetry_Int_Tables_number   1
_chemical_formula_structural   Gd4Mo7O27
_chemical_formula_sum   'Gd16 Mo28 O108'
_cell_volume   2441.42056186
_cell_formula_units_Z   4
loop_
 _symmetry_equiv_pos_site_id
 _symmetry_equiv_pos_as_xyz
  1  'x, y, z'
loop_
 _atom_site_type_symbol
 _atom_site_label
 _atom_site_symmetry_multiplicity
 _atom_site_fract_x
 _atom_site_fract_y
 _atom_site_fract_z
 _atom_site_occupancy
  Gd  Gd0  1  0.184598  0.570970  0.436704  1
  Gd  Gd1  1  0.551828  0.670269  0.854591  1
  Gd  Gd2  1  0.075660  0.685227  0.934698  1
  Gd  Gd3  1  0.827735  0.943471  0.644551  1
  Gd  Gd4  1  0.172265  0.056529  0.355449  1
  Gd  Gd5  1  0.924340  0.314773  0.065302  1
  Gd  Gd6  1  0.448172  0.329731  0.145409  1
  Gd  Gd7  1  0.056529  0.172265  0.855449  1
  Gd  Gd8  1  0.670269  0.551828  0.354591  1
  Gd  Gd9  1  0.429030  0.815402  0.063296  1
  Gd  Gd10  1  0.943471  0.827735  0.144551  1
  Gd  Gd11  1  0.815402  0.429030  0.563296  1
  Gd  Gd12  1  0.314773  0.924340  0.565302  1
  Gd  Gd13  1  0.570970  0.184598  0.936704  1
  Gd  Gd14  1  0.329731  0.448172  0.645409  1
  Gd  Gd15  1  0.685227  0.075660  0.434698  1
  Mo  Mo16  1  0.831996  0.638063  0.701665  1
  Mo  Mo17  1  0.110163  0.350105  0.613064  1
  Mo  Mo18  1  0.743842  0.132128  0.145830  1
  Mo  Mo19  1  0.056860  0.454305  0.834325  1
  Mo  Mo20  1  0.757002  0.365564  0.855206  1
  Mo  Mo21  1  0.981069  0.880914  0.398711  1
  Mo  Mo22  1  0.350105  0.110163  0.113064  1
  Mo  Mo23  1  0.484525  0.375465  0.399957  1
  Mo  Mo24  1  0.867872  0.256158  0.354170  1
  Mo  Mo25  1  0.361937  0.168004  0.798335  1
  Mo  Mo26  1  0.454305  0.056860  0.334325  1
  Mo  Mo27  1  0.256158  0.867872  0.854170  1
  Mo  Mo28  1  0.168004  0.361937  0.298335  1
  Mo  Mo29  1  0.132128  0.743842  0.645830  1
  Mo  Mo30  1  0.242998  0.634436  0.144794  1
  Mo  Mo31  1  0.634436  0.242998  0.644794  1
  Mo  Mo32  1  0.018931  0.119086  0.601289  1
  Mo  Mo33  1  0.889837  0.649895  0.386936  1
  Mo  Mo34  1  0.545695  0.943140  0.665675  1
  Mo  Mo35  1  0.880914  0.981069  0.898711  1
  Mo  Mo36  1  0.515475  0.624535  0.600043  1
  Mo  Mo37  1  0.375465  0.484525  0.899957  1
  Mo  Mo38  1  0.119086  0.018931  0.101289  1
  Mo  Mo39  1  0.638063  0.831996  0.201665  1
  Mo  Mo40  1  0.365564  0.757002  0.355206  1
  Mo  Mo41  1  0.624535  0.515475  0.100043  1
  Mo  Mo42  1  0.943140  0.545695  0.165675  1
  Mo  Mo43  1  0.649895  0.889837  0.886936  1
  O  O44  1  0.394773  0.446505  0.786016  1
  O  O45  1  0.281367  0.685169  0.372240  1
  O  O46  1  0.342731  0.266905  0.696139  1
  O  O47  1  0.190047  0.437064  0.785243  1
  O  O48  1  0.402312  0.208744  0.885266  1
  O  O49  1  0.856457  0.957023  0.475961  1
  O  O50  1  0.412353  0.575994  0.612387  1
  O  O51  1  0.901662  0.298733  0.230821  1
  O  O52  1  0.957023  0.856457  0.975961  1
  O  O53  1  0.922109  0.680407  0.256215  1
  O  O54  1  0.809953  0.562936  0.214757  1
  O  O55  1  0.098338  0.701267  0.769179  1
  O  O56  1  0.561741  0.815131  0.918653  1
  O  O57  1  0.181262  0.228733  0.568777  1
  O  O58  1  0.439750  0.987015  0.597433  1
  O  O59  1  0.013623  0.580239  0.434124  1
  O  O60  1  0.587647  0.424006  0.387613  1
  O  O61  1  0.314831  0.718633  0.127760  1
  O  O62  1  0.393688  0.806945  0.233012  1
  O  O63  1  0.363829  0.455922  0.474894  1
  O  O64  1  0.489146  0.665010  0.397251  1
  O  O65  1  0.945905  0.255568  0.558675  1
  O  O66  1  0.562936  0.809953  0.714757  1
  O  O67  1  0.560250  0.012985  0.402567  1
  O  O68  1  0.193055  0.606312  0.266988  1
  O  O69  1  0.195796  0.623656  0.586229  1
  O  O70  1  0.058909  0.115043  0.711435  1
  O  O71  1  0.161400  0.988399  0.897650  1
  O  O72  1  0.776879  0.190945  0.372046  1
  O  O73  1  0.184869  0.438259  0.581347  1
  O  O74  1  0.655326  0.955602  0.577041  1
  O  O75  1  0.115043  0.058909  0.211435  1
  O  O76  1  0.446505  0.394773  0.286016  1
  O  O77  1  0.012985  0.560250  0.902567  1
  O  O78  1  0.700921  0.124966  0.581635  1
  O  O79  1  0.665010  0.489146  0.897251  1
  O  O80  1  0.208744  0.402312  0.385266  1
  O  O81  1  0.818738  0.771267  0.431223  1
  O  O82  1  0.941091  0.884957  0.288565  1
  O  O83  1  0.809055  0.223121  0.127954  1
  O  O84  1  0.575994  0.412353  0.112387  1
  O  O85  1  0.680407  0.922109  0.756215  1
  O  O86  1  0.463536  0.767254  0.559677  1
  O  O87  1  0.744432  0.054095  0.941325  1
  O  O88  1  0.038455  0.469439  0.260970  1
  O  O89  1  0.510854  0.334990  0.602749  1
  O  O90  1  0.149535  0.240357  0.343585  1
  O  O91  1  0.553495  0.605227  0.713984  1
  O  O92  1  0.298733  0.901662  0.730821  1
  O  O93  1  0.884957  0.941091  0.788565  1
  O  O94  1  0.701267  0.098338  0.269179  1
  O  O95  1  0.942639  0.074644  0.879026  1
  O  O96  1  0.042977  0.143543  0.024039  1
  O  O97  1  0.011601  0.838600  0.602350  1
  O  O98  1  0.606312  0.193055  0.766988  1
  O  O99  1  0.636171  0.544078  0.525106  1
  O  O100  1  0.124966  0.700921  0.081635  1
  O  O101  1  0.987015  0.439750  0.097433  1
  O  O102  1  0.419761  0.986377  0.065876  1
  O  O103  1  0.875034  0.299079  0.918365  1
  O  O104  1  0.469439  0.038455  0.760970  1
  O  O105  1  0.334990  0.510854  0.102749  1
  O  O106  1  0.054095  0.744432  0.441325  1
  O  O107  1  0.791256  0.597688  0.614734  1
  O  O108  1  0.806945  0.393688  0.733012  1
  O  O109  1  0.850465  0.759643  0.656415  1
  O  O110  1  0.266905  0.342731  0.196139  1
  O  O111  1  0.925356  0.057361  0.620974  1
  O  O112  1  0.376344  0.804204  0.913771  1
  O  O113  1  0.437064  0.190047  0.285243  1
  O  O114  1  0.077891  0.319593  0.743785  1
  O  O115  1  0.961545  0.530561  0.739030  1
  O  O116  1  0.438259  0.184869  0.081347  1
  O  O117  1  0.057361  0.925356  0.120974  1
  O  O118  1  0.530561  0.961545  0.239030  1
  O  O119  1  0.733095  0.657269  0.803861  1
  O  O120  1  0.344674  0.044398  0.422959  1
  O  O121  1  0.718633  0.314831  0.627760  1
  O  O122  1  0.804204  0.376344  0.413771  1
  O  O123  1  0.240357  0.149535  0.843585  1
  O  O124  1  0.536464  0.232746  0.440323  1
  O  O125  1  0.657269  0.733095  0.303861  1
  O  O126  1  0.544078  0.636171  0.025106  1
  O  O127  1  0.228733  0.181262  0.068777  1
  O  O128  1  0.838600  0.011601  0.102350  1
  O  O129  1  0.232746  0.536464  0.940323  1
  O  O130  1  0.759643  0.850465  0.156415  1
  O  O131  1  0.455922  0.363829  0.974894  1
  O  O132  1  0.255568  0.945905  0.058675  1
  O  O133  1  0.605227  0.553495  0.213984  1
  O  O134  1  0.143543  0.042977  0.524039  1
  O  O135  1  0.771267  0.818738  0.931223  1
  O  O136  1  0.580239  0.013623  0.934124  1
  O  O137  1  0.815131  0.561741  0.418653  1
  O  O138  1  0.623656  0.195796  0.086229  1
  O  O139  1  0.223121  0.809055  0.627954  1
  O  O140  1  0.986377  0.419761  0.565876  1
  O  O141  1  0.988399  0.161400  0.397650  1
  O  O142  1  0.074644  0.942639  0.379026  1
  O  O143  1  0.319593  0.077891  0.243785  1
  O  O144  1  0.299079  0.875034  0.418365  1
  O  O145  1  0.685169  0.281367  0.872240  1
  O  O146  1  0.767254  0.463536  0.059677  1
  O  O147  1  0.955602  0.655326  0.077041  1
  O  O148  1  0.424006  0.587647  0.887613  1
  O  O149  1  0.044398  0.344674  0.922959  1
  O  O150  1  0.597688  0.791256  0.114734  1
  O  O151  1  0.190945  0.776879  0.872046  1
