# generated using pymatgen
data_Gd2Ti2O7
_symmetry_space_group_name_H-M   'P 1'
_cell_length_a   7.27369502
_cell_length_b   7.27369539
_cell_length_c   29.05051938
_cell_angle_alpha   59.50497646
_cell_angle_beta   59.50497473
_cell_angle_gamma   59.63461755
_symmetry_Int_Tables_number   1
_chemical_formula_structural   Gd2Ti2O7
_chemical_formula_sum   'Gd16 Ti16 O56'
_cell_volume   1075.63094997
_cell_formula_units_Z   8
loop_
 _symmetry_equiv_pos_site_id
 _symmetry_equiv_pos_as_xyz
  1  'x, y, z'
loop_
 _atom_site_type_symbol
 _atom_site_label
 _atom_site_symmetry_multiplicity
 _atom_site_fract_x
 _atom_site_fract_y
 _atom_site_fract_z
 _atom_site_occupancy
  Gd  Gd0  1  0.500977  -0.001204  -0.000323  1
  Gd  Gd1  1  0.476294  0.476294  0.013526  1
  Gd  Gd2  1  0.498939  0.000704  0.250200  1
  Gd  Gd3  1  -0.001184  -0.001184  0.125014  1
  Gd  Gd4  1  0.523634  0.523634  0.236322  1
  Gd  Gd5  1  -0.001204  0.500977  -0.000323  1
  Gd  Gd6  1  0.501072  0.000748  0.498076  1
  Gd  Gd7  1  0.005723  0.005723  0.375037  1
  Gd  Gd8  1  0.000704  0.498939  0.250200  1
  Gd  Gd9  1  -0.005637  -0.005637  0.503304  1
  Gd  Gd10  1  0.498896  -0.000690  0.751948  1
  Gd  Gd11  1  -0.000552  -0.000552  0.624973  1
  Gd  Gd12  1  0.000748  0.501072  0.498076  1
  Gd  Gd13  1  0.007891  0.007891  0.745637  1
  Gd  Gd14  1  -0.006202  -0.006202  0.875347  1
  Gd  Gd15  1  -0.000690  0.498896  0.751948  1
  Ti  Ti16  1  0.018979  0.018979  0.988693  1
  Ti  Ti17  1  0.502041  0.000223  0.123985  1
  Ti  Ti18  1  0.499060  0.499060  0.125177  1
  Ti  Ti19  1  0.506128  0.002146  0.371332  1
  Ti  Ti20  1  0.987533  0.987533  0.258899  1
  Ti  Ti21  1  0.000223  0.502041  0.123985  1
  Ti  Ti22  1  0.497764  0.497764  0.375162  1
  Ti  Ti23  1  0.500637  0.001186  0.624394  1
  Ti  Ti24  1  0.505601  0.505601  0.497867  1
  Ti  Ti25  1  0.500132  0.500132  0.624901  1
  Ti  Ti26  1  0.002146  0.506128  0.371332  1
  Ti  Ti27  1  0.497523  0.497523  0.750781  1
  Ti  Ti28  1  0.495494  -0.000685  0.877725  1
  Ti  Ti29  1  0.001186  0.500637  0.624394  1
  Ti  Ti30  1  0.502262  0.502262  0.874785  1
  Ti  Ti31  1  -0.000685  0.495494  0.877725  1
  O  O32  1  0.107480  0.107480  0.029741  1
  O  O33  1  0.261445  0.261445  0.097689  1
  O  O34  1  0.074485  0.693522  0.043419  1
  O  O35  1  0.174070  0.596914  0.137092  1
  O  O36  1  0.107955  0.107955  0.283658  1
  O  O37  1  0.693522  0.074485  0.043419  1
  O  O38  1  0.606925  0.606925  0.041603  1
  O  O39  1  0.596914  0.174070  0.137092  1
  O  O40  1  0.139168  0.613276  0.290174  1
  O  O41  1  0.190623  0.190623  0.387783  1
  O  O42  1  0.401903  0.826177  0.113101  1
  O  O43  1  0.392697  0.392697  0.208479  1
  O  O44  1  0.178183  0.572957  0.394091  1
  O  O45  1  0.304805  0.925264  0.207032  1
  O  O46  1  0.826177  0.401903  0.113101  1
  O  O47  1  0.126136  0.126136  0.530607  1
  O  O48  1  0.613276  0.139168  0.290174  1
  O  O49  1  0.599042  0.599042  0.288956  1
  O  O50  1  0.739718  0.739718  0.152408  1
  O  O51  1  0.925264  0.304805  0.207032  1
  O  O52  1  0.572957  0.178183  0.394091  1
  O  O53  1  0.171077  0.171077  0.644802  1
  O  O54  1  0.172551  0.578937  0.543097  1
  O  O55  1  0.412931  0.833443  0.356751  1
  O  O56  1  0.425646  0.425646  0.456232  1
  O  O57  1  0.172083  0.577762  0.644099  1
  O  O58  1  0.123847  0.123847  0.780649  1
  O  O59  1  0.424670  0.828565  0.455992  1
  O  O60  1  0.833443  0.412931  0.356751  1
  O  O61  1  0.892042  0.892042  0.220202  1
  O  O62  1  0.578937  0.172551  0.543097  1
  O  O63  1  0.580815  0.580815  0.542254  1
  O  O64  1  0.828565  0.424670  0.455992  1
  O  O65  1  0.839624  0.839624  0.353422  1
  O  O66  1  0.577762  0.172083  0.644099  1
  O  O67  1  0.158640  0.158640  0.897717  1
  O  O68  1  0.171010  0.573525  0.794825  1
  O  O69  1  0.419011  0.419011  0.708017  1
  O  O70  1  0.422045  0.826875  0.606228  1
  O  O71  1  0.826875  0.422045  0.606228  1
  O  O72  1  0.875813  0.875813  0.469538  1
  O  O73  1  0.166577  0.586787  0.893303  1
  O  O74  1  0.419997  0.826832  0.707212  1
  O  O75  1  0.573525  0.171010  0.794825  1
  O  O76  1  0.574922  0.574922  0.793885  1
  O  O77  1  0.829027  0.829027  0.605115  1
  O  O78  1  0.826832  0.419997  0.707212  1
  O  O79  1  0.586787  0.166577  0.893303  1
  O  O80  1  0.400474  0.400474  0.961149  1
  O  O81  1  0.426213  0.821496  0.856322  1
  O  O82  1  0.821496  0.426213  0.856322  1
  O  O83  1  0.873825  0.873825  0.719625  1
  O  O84  1  0.382901  0.862874  0.960336  1
  O  O85  1  0.806834  0.806834  0.863654  1
  O  O86  1  0.862874  0.382901  0.960336  1
  O  O87  1  0.892152  0.892152  0.966564  1
