# generated using pymatgen
data_Gd(Co2B)6
_symmetry_space_group_name_H-M   'P 1'
_cell_length_a   5.95670852
_cell_length_b   5.95706956
_cell_length_c   5.95693321
_cell_angle_alpha   104.07614958
_cell_angle_beta   104.07844913
_cell_angle_gamma   104.08188734
_symmetry_Int_Tables_number   1
_chemical_formula_structural   Gd(Co2B)6
_chemical_formula_sum   'Gd1 Co12 B6'
_cell_volume   188.31597190
_cell_formula_units_Z   1
loop_
 _symmetry_equiv_pos_site_id
 _symmetry_equiv_pos_as_xyz
  1  'x, y, z'
loop_
 _atom_site_type_symbol
 _atom_site_label
 _atom_site_symmetry_multiplicity
 _atom_site_fract_x
 _atom_site_fract_y
 _atom_site_fract_z
 _atom_site_occupancy
  Gd  Gd0  1  0.000013  0.999998  -0.000005  1
  Co  Co1  1  0.867645  0.500010  0.132416  1
  Co  Co2  1  0.499991  0.867605  0.132395  1
  Co  Co3  1  0.132370  0.500005  0.867599  1
  Co  Co4  1  0.186201  0.455584  0.455586  1
  Co  Co5  1  0.544413  0.813764  0.544396  1
  Co  Co6  1  0.455592  0.186224  0.455568  1
  Co  Co7  1  0.544392  0.544419  0.813761  1
  Co  Co8  1  0.867627  0.132407  0.500005  1
  Co  Co9  1  0.132371  0.867593  0.499997  1
  Co  Co10  1  0.813805  0.544425  0.544429  1
  Co  Co11  1  0.499993  0.132372  0.867609  1
  Co  Co12  1  0.455580  0.455602  0.186247  1
  B  B13  1  0.233874  0.677035  0.233859  1
  B  B14  1  0.233828  0.233876  0.677029  1
  B  B15  1  0.677053  0.233869  0.233898  1
  B  B16  1  0.766139  0.766136  0.322978  1
  B  B17  1  0.322925  0.766102  0.766122  1
  B  B18  1  0.766188  0.322973  0.766111  1
