# generated using pymatgen
data_GdMn12
_symmetry_space_group_name_H-M   'P 1'
_cell_length_a   4.62510282
_cell_length_b   6.31724270
_cell_length_c   6.32143481
_cell_angle_alpha   82.22255681
_cell_angle_beta   68.52672725
_cell_angle_gamma   68.50599179
_symmetry_Int_Tables_number   1
_chemical_formula_structural   GdMn12
_chemical_formula_sum   'Gd1 Mn12'
_cell_volume   159.92547227
_cell_formula_units_Z   1
loop_
 _symmetry_equiv_pos_site_id
 _symmetry_equiv_pos_as_xyz
  1  'x, y, z'
loop_
 _atom_site_type_symbol
 _atom_site_label
 _atom_site_symmetry_multiplicity
 _atom_site_fract_x
 _atom_site_fract_y
 _atom_site_fract_z
 _atom_site_occupancy
  Gd  Gd0  1  0.006267  0.999564  0.998192  1
  Mn  Mn1  1  0.006195  0.361043  0.637047  1
  Mn  Mn2  1  0.506411  0.226585  0.771234  1
  Mn  Mn3  1  0.276527  0.228674  0.227598  1
  Mn  Mn4  1  0.734978  0.771078  0.770060  1
  Mn  Mn5  1  0.505158  0.999735  0.500105  1
  Mn  Mn6  1  0.506266  0.771808  0.226072  1
  Mn  Mn7  1  0.366992  0.637894  0.636812  1
  Mn  Mn8  1  0.005414  0.636648  0.362083  1
  Mn  Mn9  1  0.507533  0.499510  0.995332  1
  Mn  Mn10  1  0.642468  0.363309  0.362613  1
  Mn  Mn11  1  0.007921  0.499510  0.995465  1
  Mn  Mn12  1  0.005211  -0.000057  0.500032  1
