# generated using pymatgen
data_GdMn4(CuO4)3
_symmetry_space_group_name_H-M   'P 1'
_cell_length_a   6.37845994
_cell_length_b   6.45760940
_cell_length_c   6.45219108
_cell_angle_alpha   111.00517480
_cell_angle_beta   110.61174709
_cell_angle_gamma   107.00825315
_symmetry_Int_Tables_number   1
_chemical_formula_structural   GdMn4(CuO4)3
_chemical_formula_sum   'Gd1 Mn4 Cu3 O12'
_cell_volume   203.82505909
_cell_formula_units_Z   1
loop_
 _symmetry_equiv_pos_site_id
 _symmetry_equiv_pos_as_xyz
  1  'x, y, z'
loop_
 _atom_site_type_symbol
 _atom_site_label
 _atom_site_symmetry_multiplicity
 _atom_site_fract_x
 _atom_site_fract_y
 _atom_site_fract_z
 _atom_site_occupancy
  Gd  Gd0  1  0.000001  0.999987  0.999984  1
  Mn  Mn1  1  0.000019  0.000033  0.500032  1
  Mn  Mn2  1  0.500013  0.000016  0.000001  1
  Mn  Mn3  1  0.500027  0.500001  0.500006  1
  Mn  Mn4  1  -0.000029  0.500004  0.000016  1
  Cu  Cu5  1  0.499994  0.000008  0.500004  1
  Cu  Cu6  1  0.500013  0.500003  0.000017  1
  Cu  Cu7  1  0.000001  0.500010  0.500020  1
  O  O8  1  0.530828  0.834398  0.702772  1
  O  O9  1  0.179804  0.313140  0.480007  1
  O  O10  1  0.820209  0.686874  0.519986  1
  O  O11  1  0.694646  0.873113  0.171037  1
  O  O12  1  0.302636  0.474451  0.177556  1
  O  O13  1  0.130532  0.832735  0.301541  1
  O  O14  1  0.697389  0.525563  0.822484  1
  O  O15  1  0.305355  0.126874  0.828948  1
  O  O16  1  0.188739  0.709180  0.864797  1
  O  O17  1  0.811180  0.290736  0.135126  1
  O  O18  1  0.869475  0.167298  0.698473  1
  O  O19  1  0.469168  0.165575  0.297193  1
