# generated using pymatgen
data_Gd3OsO7
_symmetry_space_group_name_H-M   'P 1'
_cell_length_a   7.45264488
_cell_length_b   10.69734114
_cell_length_c   14.98256648
_cell_angle_alpha   90.00000000
_cell_angle_beta   90.00000000
_cell_angle_gamma   90.00000000
_symmetry_Int_Tables_number   1
_chemical_formula_structural   Gd3OsO7
_chemical_formula_sum   'Gd24 Os8 O56'
_cell_volume   1194.46240918
_cell_formula_units_Z   8
loop_
 _symmetry_equiv_pos_site_id
 _symmetry_equiv_pos_as_xyz
  1  'x, y, z'
loop_
 _atom_site_type_symbol
 _atom_site_label
 _atom_site_symmetry_multiplicity
 _atom_site_fract_x
 _atom_site_fract_y
 _atom_site_fract_z
 _atom_site_occupancy
  Gd  Gd0  1  0.750325  0.943563  0.975195  1
  Gd  Gd1  1  0.003807  0.689034  0.361287  1
  Gd  Gd2  1  0.496193  0.689034  0.861287  1
  Gd  Gd3  1  0.495944  0.170563  0.610677  1
  Gd  Gd4  1  0.260366  0.902356  0.017088  1
  Gd  Gd5  1  0.504056  0.670563  0.389323  1
  Gd  Gd6  1  0.745333  0.915723  0.225389  1
  Gd  Gd7  1  0.995944  0.670563  0.889323  1
  Gd  Gd8  1  0.755754  0.456836  0.732587  1
  Gd  Gd9  1  0.245333  0.415723  0.274611  1
  Gd  Gd10  1  0.239634  0.902356  0.517088  1
  Gd  Gd11  1  0.244246  0.956836  0.267413  1
  Gd  Gd12  1  0.739634  0.402356  0.982912  1
  Gd  Gd13  1  0.760366  0.402356  0.482912  1
  Gd  Gd14  1  0.754667  0.915723  0.725389  1
  Gd  Gd15  1  0.255754  0.956836  0.767413  1
  Gd  Gd16  1  0.996193  0.189034  0.638713  1
  Gd  Gd17  1  0.503807  0.189034  0.138713  1
  Gd  Gd18  1  0.744246  0.456836  0.232587  1
  Gd  Gd19  1  0.249675  0.443563  0.024805  1
  Gd  Gd20  1  0.250325  0.443563  0.524805  1
  Gd  Gd21  1  0.004056  0.170563  0.110677  1
  Gd  Gd22  1  0.254667  0.415723  0.774611  1
  Gd  Gd23  1  0.749675  0.943563  0.475195  1
  Os  Os24  1  0.001904  0.678544  0.626298  1
  Os  Os25  1  0.001727  0.180122  0.875204  1
  Os  Os26  1  0.998273  0.680122  0.124796  1
  Os  Os27  1  0.998096  0.178544  0.373702  1
  Os  Os28  1  0.498096  0.678544  0.126298  1
  Os  Os29  1  0.501727  0.680122  0.624796  1
  Os  Os30  1  0.498273  0.180122  0.375204  1
  Os  Os31  1  0.501904  0.178544  0.873702  1
  O  O32  1  0.035959  0.050964  0.970049  1
  O  O33  1  0.250994  0.667757  0.591190  1
  O  O34  1  0.467571  0.280831  0.986486  1
  O  O35  1  0.239483  0.048592  0.627959  1
  O  O36  1  0.748191  0.690301  0.159144  1
  O  O37  1  0.545310  0.330778  0.808627  1
  O  O38  1  0.454690  0.830778  0.191373  1
  O  O39  1  0.031285  0.811176  0.220830  1
  O  O40  1  0.470870  0.556615  0.723095  1
  O  O41  1  0.529130  0.056615  0.276905  1
  O  O42  1  0.251809  0.190301  0.840856  1
  O  O43  1  0.533448  0.074384  0.761449  1
  O  O44  1  0.764294  0.813846  0.856338  1
  O  O45  1  0.968715  0.311176  0.779170  1
  O  O46  1  0.039750  0.022225  0.437748  1
  O  O47  1  0.233701  0.810830  0.878139  1
  O  O48  1  0.966552  0.074384  0.261449  1
  O  O49  1  0.733701  0.310830  0.621861  1
  O  O50  1  0.528933  0.806165  0.527868  1
  O  O51  1  0.751809  0.690301  0.659144  1
  O  O52  1  0.535959  0.550964  0.529951  1
  O  O53  1  0.967571  0.780831  0.513514  1
  O  O54  1  0.233150  0.544793  0.394310  1
  O  O55  1  0.760517  0.548592  0.372041  1
  O  O56  1  0.033448  0.574384  0.738551  1
  O  O57  1  0.235706  0.313846  0.143662  1
  O  O58  1  0.733150  0.044793  0.105690  1
  O  O59  1  0.539750  0.522225  0.062252  1
  O  O60  1  0.266850  0.544793  0.894310  1
  O  O61  1  0.766299  0.310830  0.121861  1
  O  O62  1  0.045310  0.830778  0.691373  1
  O  O63  1  0.471067  0.306165  0.472132  1
  O  O64  1  0.264294  0.313846  0.643662  1
  O  O65  1  0.266299  0.810830  0.378139  1
  O  O66  1  0.260517  0.048592  0.127959  1
  O  O67  1  0.750994  0.167757  0.908810  1
  O  O68  1  0.735706  0.813846  0.356338  1
  O  O69  1  0.249006  0.667757  0.091190  1
  O  O70  1  0.532429  0.780831  0.013514  1
  O  O71  1  0.460250  0.022225  0.937748  1
  O  O72  1  0.766850  0.044793  0.605690  1
  O  O73  1  0.960250  0.522225  0.562252  1
  O  O74  1  0.970870  0.056615  0.776905  1
  O  O75  1  0.464041  0.050964  0.470049  1
  O  O76  1  0.466552  0.574384  0.238551  1
  O  O77  1  0.028933  0.306165  0.972132  1
  O  O78  1  0.531285  0.311176  0.279170  1
  O  O79  1  0.248191  0.190301  0.340856  1
  O  O80  1  0.468715  0.811176  0.720830  1
  O  O81  1  0.739483  0.548592  0.872041  1
  O  O82  1  0.749006  0.167757  0.408810  1
  O  O83  1  0.029130  0.556615  0.223095  1
  O  O84  1  0.971067  0.806165  0.027868  1
  O  O85  1  0.964041  0.550964  0.029951  1
  O  O86  1  0.954690  0.330778  0.308627  1
  O  O87  1  0.032429  0.280831  0.486486  1
