# generated using pymatgen
data_Gd3RuO7
_symmetry_space_group_name_H-M   'P 1'
_cell_length_a   7.44049956
_cell_length_b   10.66609733
_cell_length_c   14.78366011
_cell_angle_alpha   90.00000000
_cell_angle_beta   90.00000000
_cell_angle_gamma   90.00000000
_symmetry_Int_Tables_number   1
_chemical_formula_structural   Gd3RuO7
_chemical_formula_sum   'Gd24 Ru8 O56'
_cell_volume   1173.24741734
_cell_formula_units_Z   8
loop_
 _symmetry_equiv_pos_site_id
 _symmetry_equiv_pos_as_xyz
  1  'x, y, z'
loop_
 _atom_site_type_symbol
 _atom_site_label
 _atom_site_symmetry_multiplicity
 _atom_site_fract_x
 _atom_site_fract_y
 _atom_site_fract_z
 _atom_site_occupancy
  Gd  Gd0  1  0.250002  0.729435  0.471947  1
  Gd  Gd1  1  0.743109  0.717366  0.272833  1
  Gd  Gd2  1  0.249998  0.729435  0.971947  1
  Gd  Gd3  1  0.243109  0.217366  0.227167  1
  Gd  Gd4  1  0.256891  0.217366  0.727167  1
  Gd  Gd5  1  0.750002  0.229435  0.028053  1
  Gd  Gd6  1  0.755308  0.269506  0.777459  1
  Gd  Gd7  1  0.756891  0.717366  0.772833  1
  Gd  Gd8  1  0.763596  0.779841  0.021555  1
  Gd  Gd9  1  0.003625  0.007243  0.388650  1
  Gd  Gd10  1  0.255308  0.769506  0.722541  1
  Gd  Gd11  1  0.503625  0.507243  0.111350  1
  Gd  Gd12  1  0.004151  0.490683  0.138368  1
  Gd  Gd13  1  0.244692  0.769506  0.222541  1
  Gd  Gd14  1  0.504151  0.990683  0.361632  1
  Gd  Gd15  1  0.996375  0.507243  0.611350  1
  Gd  Gd16  1  0.263596  0.279841  0.478445  1
  Gd  Gd17  1  0.744692  0.269506  0.277459  1
  Gd  Gd18  1  0.736404  0.779841  0.521555  1
  Gd  Gd19  1  0.995849  0.990683  0.861632  1
  Gd  Gd20  1  0.495849  0.490683  0.638368  1
  Gd  Gd21  1  0.749998  0.229435  0.528053  1
  Gd  Gd22  1  0.236404  0.279841  0.978445  1
  Gd  Gd23  1  0.496375  0.007243  0.888650  1
  Ru  Ru24  1  0.497483  0.499757  0.373024  1
  Ru  Ru25  1  0.997483  0.999757  0.126976  1
  Ru  Ru26  1  0.998449  0.498166  0.375588  1
  Ru  Ru27  1  0.002517  0.499757  0.873024  1
  Ru  Ru28  1  0.498449  0.998166  0.124412  1
  Ru  Ru29  1  0.001551  0.998166  0.624412  1
  Ru  Ru30  1  0.502517  0.999757  0.626976  1
  Ru  Ru31  1  0.501551  0.498166  0.875588  1
  O  O32  1  0.957320  0.626744  0.468931  1
  O  O33  1  0.266539  0.633842  0.605740  1
  O  O34  1  0.733461  0.133842  0.394260  1
  O  O35  1  0.265042  0.368590  0.118733  1
  O  O36  1  0.233461  0.633842  0.105740  1
  O  O37  1  0.037149  0.368062  0.279859  1
  O  O38  1  0.958924  0.105645  0.237289  1
  O  O39  1  0.542680  0.626744  0.968931  1
  O  O40  1  0.042680  0.126744  0.531069  1
  O  O41  1  0.541076  0.105645  0.737289  1
  O  O42  1  0.465838  0.871273  0.029506  1
  O  O43  1  0.234958  0.368590  0.618733  1
  O  O44  1  0.458924  0.605645  0.262711  1
  O  O45  1  0.462851  0.368062  0.779859  1
  O  O46  1  0.537149  0.868062  0.220141  1
  O  O47  1  0.959886  0.396275  0.984655  1
  O  O48  1  0.964684  0.123890  0.719854  1
  O  O49  1  0.741342  0.630073  0.631384  1
  O  O50  1  0.034162  0.871273  0.529506  1
  O  O51  1  0.457320  0.126744  0.031069  1
  O  O52  1  0.241342  0.130073  0.868616  1
  O  O53  1  0.955950  0.656104  0.938102  1
  O  O54  1  0.750994  0.490958  0.830703  1
  O  O55  1  0.250994  0.990958  0.669297  1
  O  O56  1  0.762421  0.366036  0.643890  1
  O  O57  1  0.950895  0.848627  0.194188  1
  O  O58  1  0.041076  0.605645  0.762711  1
  O  O59  1  0.534162  0.371273  0.970494  1
  O  O60  1  0.540114  0.396275  0.484655  1
  O  O61  1  0.251149  0.507376  0.918984  1
  O  O62  1  0.965838  0.371273  0.470494  1
  O  O63  1  0.748851  0.007376  0.081016  1
  O  O64  1  0.049105  0.348627  0.805812  1
  O  O65  1  0.249006  0.990958  0.169297  1
  O  O66  1  0.035316  0.623890  0.280146  1
  O  O67  1  0.544050  0.656104  0.438102  1
  O  O68  1  0.758658  0.630073  0.131384  1
  O  O69  1  0.734958  0.868590  0.881267  1
  O  O70  1  0.459886  0.896275  0.515345  1
  O  O71  1  0.262421  0.866035  0.856110  1
  O  O72  1  0.044050  0.156104  0.061898  1
  O  O73  1  0.455950  0.156104  0.561898  1
  O  O74  1  0.258658  0.130073  0.368616  1
  O  O75  1  0.749006  0.490958  0.330703  1
  O  O76  1  0.962851  0.868062  0.720141  1
  O  O77  1  0.248851  0.507376  0.418984  1
  O  O78  1  0.535316  0.123890  0.219854  1
  O  O79  1  0.549105  0.848627  0.694188  1
  O  O80  1  0.040114  0.896275  0.015345  1
  O  O81  1  0.766539  0.133842  0.894260  1
  O  O82  1  0.237579  0.866035  0.356110  1
  O  O83  1  0.464684  0.623890  0.780146  1
  O  O84  1  0.737579  0.366036  0.143890  1
  O  O85  1  0.751149  0.007376  0.581016  1
  O  O86  1  0.450895  0.348627  0.305812  1
  O  O87  1  0.765042  0.868590  0.381267  1
