# generated using pymatgen
data_GdCrO4
_symmetry_space_group_name_H-M   'P 1'
_cell_length_a   6.05911588
_cell_length_b   6.05911589
_cell_length_c   6.05911589
_cell_angle_alpha   105.91975193
_cell_angle_beta   105.91975199
_cell_angle_gamma   116.83472993
_symmetry_Int_Tables_number   1
_chemical_formula_structural   GdCrO4
_chemical_formula_sum   'Gd2 Cr2 O8'
_cell_volume   169.09314907
_cell_formula_units_Z   2
loop_
 _symmetry_equiv_pos_site_id
 _symmetry_equiv_pos_as_xyz
  1  'x, y, z'
loop_
 _atom_site_type_symbol
 _atom_site_label
 _atom_site_symmetry_multiplicity
 _atom_site_fract_x
 _atom_site_fract_y
 _atom_site_fract_z
 _atom_site_occupancy
  O  O0  1  0.796731  0.729736  0.433005  1
  O  O1  1  0.363725  0.796731  0.566995  1
  O  O2  1  0.729736  0.796731  0.933005  1
  O  O3  1  0.796731  0.363725  0.066995  1
  O  O4  1  0.636275  0.203269  0.433005  1
  O  O5  1  0.203269  0.270264  0.566995  1
  O  O6  1  0.203269  0.636275  0.933005  1
  O  O7  1  0.270264  0.203269  0.066995  1
  Cr  Cr8  1  0.375000  0.625000  0.750000  1
  Cr  Cr9  1  0.625000  0.375000  0.250000  1
  Gd  Gd10  1  0.125000  0.875000  0.250000  1
  Gd  Gd11  1  0.875000  0.125000  0.750000  1
