# generated using pymatgen
data_Gd(CuO2)2
_symmetry_space_group_name_H-M   'P 1'
_cell_length_a   5.74641077
_cell_length_b   5.74129144
_cell_length_c   6.32044295
_cell_angle_alpha   116.93375264
_cell_angle_beta   116.95985264
_cell_angle_gamma   90.15430655
_symmetry_Int_Tables_number   1
_chemical_formula_structural   Gd(CuO2)2
_chemical_formula_sum   'Gd2 Cu4 O8'
_cell_volume   159.92131684
_cell_formula_units_Z   2
loop_
 _symmetry_equiv_pos_site_id
 _symmetry_equiv_pos_as_xyz
  1  'x, y, z'
loop_
 _atom_site_type_symbol
 _atom_site_label
 _atom_site_symmetry_multiplicity
 _atom_site_fract_x
 _atom_site_fract_y
 _atom_site_fract_z
 _atom_site_occupancy
  O  O0  1  0.714697  0.529390  0.852935  1
  O  O1  1  0.138238  0.823545  0.852935  1
  O  O2  1  0.285303  0.470610  0.147065  1
  O  O3  1  0.861762  0.176455  0.147065  1
  O  O4  1  0.529940  0.138427  0.352883  1
  O  O5  1  0.822942  0.714456  0.352883  1
  O  O6  1  0.177058  0.285544  0.647117  1
  O  O7  1  0.470060  0.861573  0.647117  1
  Cu  Cu8  1  0.500000  0.000000  0.000000  1
  Cu  Cu9  1  0.500000  0.500000  0.000000  1
  Cu  Cu10  1  0.000000  0.500000  0.500000  1
  Cu  Cu11  1  0.500000  0.500000  0.500000  1
  Gd  Gd12  1  0.874968  0.124968  0.749937  1
  Gd  Gd13  1  0.125032  0.875032  0.250063  1
