# generated using pymatgen
data_GdMn3
_symmetry_space_group_name_H-M   'P 1'
_cell_length_a   5.93067587
_cell_length_b   5.93067615
_cell_length_c   4.37068289
_cell_angle_alpha   90.00000000
_cell_angle_beta   90.00000000
_cell_angle_gamma   119.99999852
_symmetry_Int_Tables_number   1
_chemical_formula_structural   GdMn3
_chemical_formula_sum   'Gd2 Mn6'
_cell_volume   133.13380194
_cell_formula_units_Z   2
loop_
 _symmetry_equiv_pos_site_id
 _symmetry_equiv_pos_as_xyz
  1  'x, y, z'
loop_
 _atom_site_type_symbol
 _atom_site_label
 _atom_site_symmetry_multiplicity
 _atom_site_fract_x
 _atom_site_fract_y
 _atom_site_fract_z
 _atom_site_occupancy
  Gd  Gd0  1  0.333334  0.666667  0.750000  1
  Gd  Gd1  1  0.666667  0.333334  0.249999  1
  Mn  Mn2  1  0.137957  0.275914  0.249999  1
  Mn  Mn3  1  0.724086  0.862042  0.249999  1
  Mn  Mn4  1  0.137958  0.862042  0.249999  1
  Mn  Mn5  1  0.862043  0.724086  0.750000  1
  Mn  Mn6  1  0.275913  0.137956  0.750000  1
  Mn  Mn7  1  0.862043  0.137956  0.750000  1
