# generated using pymatgen
data_GdNbO4
_symmetry_space_group_name_H-M   'P 1'
_cell_length_a   5.17109856
_cell_length_b   5.41194723
_cell_length_c   6.68062721
_cell_angle_alpha   112.09198984
_cell_angle_beta   110.89891503
_cell_angle_gamma   94.29030548
_symmetry_Int_Tables_number   1
_chemical_formula_structural   GdNbO4
_chemical_formula_sum   'Gd2 Nb2 O8'
_cell_volume   157.05192798
_cell_formula_units_Z   2
loop_
 _symmetry_equiv_pos_site_id
 _symmetry_equiv_pos_as_xyz
  1  'x, y, z'
loop_
 _atom_site_type_symbol
 _atom_site_label
 _atom_site_symmetry_multiplicity
 _atom_site_fract_x
 _atom_site_fract_y
 _atom_site_fract_z
 _atom_site_occupancy
  O  O0  1  0.988096  0.786370  0.564493  1
  O  O1  1  0.576397  0.278123  0.564493  1
  O  O2  1  0.011904  0.213630  0.435507  1
  O  O3  1  0.423603  0.721877  0.435507  1
  O  O4  1  0.206304  0.366038  0.918278  1
  O  O5  1  0.711974  0.052240  0.918278  1
  O  O6  1  0.793696  0.633962  0.081722  1
  O  O7  1  0.288026  0.947760  0.081722  1
  Nb  Nb8  1  0.856034  0.106034  0.712068  1
  Nb  Nb9  1  0.143966  0.893966  0.287932  1
  Gd  Gd10  1  0.378854  0.628854  0.757708  1
  Gd  Gd11  1  0.621146  0.371146  0.242292  1
