# generated using pymatgen
data_GdNi
_symmetry_space_group_name_H-M   'P 1'
_cell_length_a   3.76782844
_cell_length_b   4.23883463
_cell_length_c   5.54158438
_cell_angle_alpha   90.00000000
_cell_angle_beta   109.87440815
_cell_angle_gamma   90.00000000
_symmetry_Int_Tables_number   1
_chemical_formula_structural   GdNi
_chemical_formula_sum   'Gd2 Ni2'
_cell_volume   83.23436447
_cell_formula_units_Z   2
loop_
 _symmetry_equiv_pos_site_id
 _symmetry_equiv_pos_as_xyz
  1  'x, y, z'
loop_
 _atom_site_type_symbol
 _atom_site_label
 _atom_site_symmetry_multiplicity
 _atom_site_fract_x
 _atom_site_fract_y
 _atom_site_fract_z
 _atom_site_occupancy
  Gd  Gd0  1  0.860821  0.250000  0.721642  1
  Gd  Gd1  1  0.139179  0.750000  0.278358  1
  Ni  Ni2  1  0.427740  0.750000  0.855481  1
  Ni  Ni3  1  0.572260  0.250000  0.144519  1
