# generated using pymatgen
data_GdRu2
_symmetry_space_group_name_H-M   'P 1'
_cell_length_a   5.36835943
_cell_length_b   5.36763706
_cell_length_c   5.37275232
_cell_angle_alpha   59.98836203
_cell_angle_beta   60.00232223
_cell_angle_gamma   59.96737662
_symmetry_Int_Tables_number   1
_chemical_formula_structural   GdRu2
_chemical_formula_sum   'Gd2 Ru4'
_cell_volume   109.43816025
_cell_formula_units_Z   2
loop_
 _symmetry_equiv_pos_site_id
 _symmetry_equiv_pos_as_xyz
  1  'x, y, z'
loop_
 _atom_site_type_symbol
 _atom_site_label
 _atom_site_symmetry_multiplicity
 _atom_site_fract_x
 _atom_site_fract_y
 _atom_site_fract_z
 _atom_site_occupancy
  Gd  Gd0  1  0.124873  0.125068  0.125090  1
  Gd  Gd1  1  0.874955  0.874977  0.875039  1
  Ru  Ru2  1  0.500033  0.499994  0.999961  1
  Ru  Ru3  1  0.500030  0.000000  0.499975  1
  Ru  Ru4  1  0.500029  0.499985  0.499980  1
  Ru  Ru5  1  0.000079  0.499976  0.499955  1
