# generated using pymatgen
data_GdTa7O19
_symmetry_space_group_name_H-M   'P 1'
_cell_length_a   6.26970755
_cell_length_b   6.26965530
_cell_length_c   20.13418899
_cell_angle_alpha   89.99996519
_cell_angle_beta   89.99997795
_cell_angle_gamma   119.99995872
_symmetry_Int_Tables_number   1
_chemical_formula_structural   GdTa7O19
_chemical_formula_sum   'Gd2 Ta14 O38'
_cell_volume   685.41862448
_cell_formula_units_Z   2
loop_
 _symmetry_equiv_pos_site_id
 _symmetry_equiv_pos_as_xyz
  1  'x, y, z'
loop_
 _atom_site_type_symbol
 _atom_site_label
 _atom_site_symmetry_multiplicity
 _atom_site_fract_x
 _atom_site_fract_y
 _atom_site_fract_z
 _atom_site_occupancy
  Gd  Gd0  1  0.333333  0.666689  -0.000002  1
  Gd  Gd1  1  0.333319  0.666611  0.499999  1
  Ta  Ta2  1  0.360281  0.360057  0.155555  1
  Ta  Ta3  1  0.360278  0.360055  0.344437  1
  Ta  Ta4  1  0.639950  0.639727  0.655560  1
  Ta  Ta5  1  0.639948  0.639723  0.844443  1
  Ta  Ta6  1  0.360279  0.000220  0.844437  1
  Ta  Ta7  1  0.360278  0.000223  0.655556  1
  Ta  Ta8  1  0.666647  0.333306  0.499998  1
  Ta  Ta9  1  0.666654  0.333347  0.000000  1
  Ta  Ta10  1  0.639952  0.000225  0.155561  1
  Ta  Ta11  1  0.639948  0.000224  0.344443  1
  Ta  Ta12  1  0.999781  0.639723  0.155561  1
  Ta  Ta13  1  0.999781  0.639724  0.344443  1
  Ta  Ta14  1  0.999784  0.360055  0.844442  1
  Ta  Ta15  1  0.999780  0.360057  0.655560  1
  O  O16  1  0.999932  0.753566  0.653273  1
  O  O17  1  0.999930  0.753572  0.846728  1
  O  O18  1  0.042106  0.626234  0.250001  1
  O  O19  1  0.246437  0.000076  0.346726  1
  O  O20  1  0.246438  0.000076  0.153274  1
  O  O21  1  0.042111  0.415868  0.750001  1
  O  O22  1  0.999930  0.246363  0.153272  1
  O  O23  1  0.999924  0.246371  0.346727  1
  O  O24  1  0.373771  0.957899  0.749999  1
  O  O25  1  0.333332  0.666667  0.131274  1
  O  O26  1  0.333332  0.666672  0.868725  1
  O  O27  1  0.333335  0.666664  0.631275  1
  O  O28  1  0.333334  0.666666  0.368726  1
  O  O29  1  0.584136  0.957897  0.250000  1
  O  O30  1  0.246437  0.246362  0.653274  1
  O  O31  1  0.246438  0.246366  0.846726  1
  O  O32  1  0.373768  0.415874  0.249998  1
  O  O33  1  0.428663  0.381167  0.056065  1
  O  O34  1  0.428649  0.381146  0.443936  1
  O  O35  1  0.753634  0.000078  0.653274  1
  O  O36  1  0.753630  0.000076  0.846728  1
  O  O37  1  0.584136  0.626243  0.750001  1
  O  O38  1  0.618848  0.571337  0.556065  1
  O  O39  1  0.618839  0.571347  0.943934  1
  O  O40  1  0.753632  0.753552  0.153275  1
  O  O41  1  0.753637  0.753564  0.346727  1
  O  O42  1  0.428659  0.047492  0.556066  1
  O  O43  1  0.428655  0.047509  0.943935  1
  O  O44  1  0.666669  0.333336  0.333314  1
  O  O45  1  0.666667  0.333334  0.666687  1
  O  O46  1  0.666669  0.333337  0.833314  1
  O  O47  1  0.666669  0.333333  0.166687  1
  O  O48  1  0.618836  0.047493  0.443935  1
  O  O49  1  0.618847  0.047514  0.056066  1
  O  O50  1  0.952489  0.571330  0.443935  1
  O  O51  1  0.952499  0.571354  0.056063  1
  O  O52  1  0.952491  0.381164  0.943935  1
  O  O53  1  0.952495  0.381143  0.556064  1
