# generated using pymatgen
data_GdVO4
_symmetry_space_group_name_H-M   'P 1'
_cell_length_a   6.07601762
_cell_length_b   6.07601762
_cell_length_c   6.07601762
_cell_angle_alpha   106.18343693
_cell_angle_beta   106.18343701
_cell_angle_gamma   116.26816516
_symmetry_Int_Tables_number   1
_chemical_formula_structural   GdVO4
_chemical_formula_sum   'Gd2 V2 O8'
_cell_volume   170.83382891
_cell_formula_units_Z   2
loop_
 _symmetry_equiv_pos_site_id
 _symmetry_equiv_pos_as_xyz
  1  'x, y, z'
loop_
 _atom_site_type_symbol
 _atom_site_label
 _atom_site_symmetry_multiplicity
 _atom_site_fract_x
 _atom_site_fract_y
 _atom_site_fract_z
 _atom_site_occupancy
  O  O0  1  0.798780  0.732061  0.433281  1
  O  O1  1  0.798780  0.365500  0.066719  1
  O  O2  1  0.267939  0.201220  0.066719  1
  O  O3  1  0.201220  0.634500  0.933281  1
  O  O4  1  0.201220  0.267939  0.566719  1
  O  O5  1  0.634500  0.201220  0.433281  1
  O  O6  1  0.365500  0.798780  0.566719  1
  O  O7  1  0.732061  0.798780  0.933281  1
  V  V8  1  0.625000  0.375000  0.250000  1
  V  V9  1  0.375000  0.625000  0.750000  1
  Gd  Gd10  1  0.875000  0.125000  0.750000  1
  Gd  Gd11  1  0.125000  0.875000  0.250000  1
