# generated using pymatgen
data_Gd2Zn17
_symmetry_space_group_name_H-M   'P 1'
_cell_length_a   6.82047726
_cell_length_b   6.82047653
_cell_length_c   6.82047732
_cell_angle_alpha   82.60392440
_cell_angle_beta   82.60392513
_cell_angle_gamma   82.60392725
_symmetry_Int_Tables_number   1
_chemical_formula_structural   Gd2Zn17
_chemical_formula_sum   'Gd2 Zn17'
_cell_volume   309.98770086
_cell_formula_units_Z   1
loop_
 _symmetry_equiv_pos_site_id
 _symmetry_equiv_pos_as_xyz
  1  'x, y, z'
loop_
 _atom_site_type_symbol
 _atom_site_label
 _atom_site_symmetry_multiplicity
 _atom_site_fract_x
 _atom_site_fract_y
 _atom_site_fract_z
 _atom_site_occupancy
  Gd  Gd0  1  0.664653  0.664653  0.664653  1
  Gd  Gd1  1  0.335347  0.335347  0.335347  1
  Zn  Zn2  1  0.350960  0.350960  0.838739  1
  Zn  Zn3  1  0.296281  0.703719  0.000000  1
  Zn  Zn4  1  0.000000  0.296281  0.703719  1
  Zn  Zn5  1  0.350960  0.838739  0.350960  1
  Zn  Zn6  1  0.649040  0.649040  0.161261  1
  Zn  Zn7  1  0.838739  0.350960  0.350960  1
  Zn  Zn8  1  0.703719  1.000000  0.296281  1
  Zn  Zn9  1  0.161261  0.649040  0.649040  1
  Zn  Zn10  1  0.649040  0.161261  0.649040  1
  Zn  Zn11  1  0.000000  0.000000  0.500000  1
  Zn  Zn12  1  0.703719  0.296281  1.000000  1
  Zn  Zn13  1  0.100009  0.100009  0.100009  1
  Zn  Zn14  1  1.000000  0.703719  0.296281  1
  Zn  Zn15  1  0.000000  0.500000  0.000000  1
  Zn  Zn16  1  0.899991  0.899991  0.899991  1
  Zn  Zn17  1  0.500000  0.000000  0.000000  1
  Zn  Zn18  1  0.296281  0.000000  0.703719  1
