# generated using pymatgen
data_Gd3Ni19B10
_symmetry_space_group_name_H-M   'P 1'
_cell_length_a   7.87083758
_cell_length_b   7.86980377
_cell_length_c   5.75661334
_cell_angle_alpha   88.83853003
_cell_angle_beta   91.17873333
_cell_angle_gamma   112.82101217
_symmetry_Int_Tables_number   1
_chemical_formula_structural   Gd3Ni19B10
_chemical_formula_sum   'Gd3 Ni19 B10'
_cell_volume   328.56465090
_cell_formula_units_Z   1
loop_
 _symmetry_equiv_pos_site_id
 _symmetry_equiv_pos_as_xyz
  1  'x, y, z'
loop_
 _atom_site_type_symbol
 _atom_site_label
 _atom_site_symmetry_multiplicity
 _atom_site_fract_x
 _atom_site_fract_y
 _atom_site_fract_z
 _atom_site_occupancy
  Gd  Gd0  1  0.625524  0.374415  0.387948  1
  Gd  Gd1  1  0.374489  0.625575  0.612010  1
  Gd  Gd2  1  0.000007  0.000003  -0.000016  1
  Ni  Ni3  1  0.999988  0.000014  0.500018  1
  Ni  Ni4  1  0.621347  0.878320  0.926188  1
  Ni  Ni5  1  0.878283  0.621276  0.073897  1
  Ni  Ni6  1  0.378668  0.121692  0.073810  1
  Ni  Ni7  1  0.121706  0.378713  0.926093  1
  Ni  Ni8  1  0.287805  0.229172  0.698923  1
  Ni  Ni9  1  0.229211  0.287860  0.301073  1
  Ni  Ni10  1  0.712213  0.770830  0.301077  1
  Ni  Ni11  1  0.770794  0.712133  0.698935  1
  Ni  Ni12  1  0.182670  0.817296  0.271265  1
  Ni  Ni13  1  0.817309  0.182732  0.728778  1
  Ni  Ni14  1  0.955145  0.518419  0.698661  1
  Ni  Ni15  1  0.518419  0.955137  0.301364  1
  Ni  Ni16  1  0.044853  0.481589  0.301333  1
  Ni  Ni17  1  0.481570  0.044840  0.698614  1
  Ni  Ni18  1  0.621862  0.378052  0.876298  1
  Ni  Ni19  1  0.378134  0.621948  0.123644  1
  Ni  Ni20  1  0.162849  0.837210  0.701542  1
  Ni  Ni21  1  0.837143  0.162781  0.298509  1
  B  B22  1  0.347996  0.857172  0.975218  1
  B  B23  1  0.857123  0.347902  0.024904  1
  B  B24  1  0.383213  0.383204  0.000040  1
  B  B25  1  0.616788  0.616793  -0.000015  1
  B  B26  1  0.142872  0.652103  0.975140  1
  B  B27  1  0.651988  0.142820  0.024803  1
  B  B28  1  0.299894  0.063625  0.431475  1
  B  B29  1  0.063529  0.299810  0.568521  1
  B  B30  1  0.700138  0.936388  0.568502  1
  B  B31  1  0.936457  0.700161  0.431449  1
