# generated using pymatgen
data_Gd3Y13O24
_symmetry_space_group_name_H-M   'P 1'
_cell_length_a   9.29608432
_cell_length_b   9.29629879
_cell_length_c   9.28532297
_cell_angle_alpha   109.44963856
_cell_angle_beta   109.44542900
_cell_angle_gamma   109.49508881
_symmetry_Int_Tables_number   1
_chemical_formula_structural   Gd3Y13O24
_chemical_formula_sum   'Gd3 Y13 O24'
_cell_volume   617.88990061
_cell_formula_units_Z   1
loop_
 _symmetry_equiv_pos_site_id
 _symmetry_equiv_pos_as_xyz
  1  'x, y, z'
loop_
 _atom_site_type_symbol
 _atom_site_label
 _atom_site_symmetry_multiplicity
 _atom_site_fract_x
 _atom_site_fract_y
 _atom_site_fract_z
 _atom_site_occupancy
  Gd  Gd0  1  0.250241  0.218372  0.968540  1
  Gd  Gd1  1  0.282754  0.532305  0.749817  1
  Gd  Gd2  1  0.031329  0.749636  0.781998  1
  Y  Y3  1  0.501324  0.000653  0.000649  1
  Y  Y4  1  0.966567  0.249866  0.217141  1
  Y  Y5  1  0.781559  0.033130  0.749693  1
  Y  Y6  1  0.717681  0.467445  0.249829  1
  Y  Y7  1  0.750438  0.783375  0.033563  1
  Y  Y8  1  0.748431  0.281524  0.531841  1
  Y  Y9  1  0.998641  0.499841  0.000533  1
  Y  Y10  1  0.500135  0.500037  0.499872  1
  Y  Y11  1  0.533681  0.751157  0.283902  1
  Y  Y12  1  0.999419  0.999417  0.498910  1
  Y  Y13  1  0.467391  0.249197  0.716522  1
  Y  Y14  1  0.250369  0.717210  0.466416  1
  Y  Y15  1  0.217218  0.966844  0.250789  1
  O  O16  1  0.739442  0.228416  0.270782  1
  O  O17  1  0.760706  0.031716  0.488864  1
  O  O18  1  0.273880  0.010940  0.044490  1
  O  O19  1  0.968542  0.511279  0.239926  1
  O  O20  1  0.467766  0.229014  0.457544  1
  O  O21  1  0.771910  0.729437  0.261036  1
  O  O22  1  0.459912  0.471199  0.231379  1
  O  O23  1  0.039829  0.272037  0.010860  1
  O  O24  1  0.491542  0.763372  0.033848  1
  O  O25  1  0.728656  0.260490  0.771191  1
  O  O26  1  0.768143  0.539515  0.529072  1
  O  O27  1  0.010831  0.042700  0.271643  1
  O  O28  1  0.229749  0.457531  0.465907  1
  O  O29  1  0.270689  0.738554  0.227948  1
  O  O30  1  0.986253  0.957839  0.726566  1
  O  O31  1  0.513383  0.239908  0.969001  1
  O  O32  1  0.544715  0.531511  0.771178  1
  O  O33  1  0.957857  0.728418  0.992040  1
  O  O34  1  0.531708  0.771007  0.542770  1
  O  O35  1  0.228343  0.267811  0.736313  1
  O  O36  1  0.728487  0.989031  0.957681  1
  O  O37  1  0.028792  0.486668  0.760362  1
  O  O38  1  0.238797  0.967779  0.510182  1
  O  O39  1  0.262889  0.773817  0.729399  1
