# generated using pymatgen
data_GdCoB4
_symmetry_space_group_name_H-M   'P 1'
_cell_length_a   3.40410281
_cell_length_b   5.92231767
_cell_length_c   11.47760733
_cell_angle_alpha   90.00000000
_cell_angle_beta   90.00000000
_cell_angle_gamma   90.00000000
_symmetry_Int_Tables_number   1
_chemical_formula_structural   GdCoB4
_chemical_formula_sum   'Gd4 Co4 B16'
_cell_volume   231.39060934
_cell_formula_units_Z   4
loop_
 _symmetry_equiv_pos_site_id
 _symmetry_equiv_pos_as_xyz
  1  'x, y, z'
loop_
 _atom_site_type_symbol
 _atom_site_label
 _atom_site_symmetry_multiplicity
 _atom_site_fract_x
 _atom_site_fract_y
 _atom_site_fract_z
 _atom_site_occupancy
  B  B0  1  0.500000  0.021879  0.689837  1
  B  B1  1  0.500000  0.978121  0.310163  1
  B  B2  1  0.500000  0.521879  0.810163  1
  B  B3  1  0.500000  0.478121  0.189837  1
  B  B4  1  0.500000  0.111006  0.545820  1
  B  B5  1  0.500000  0.888994  0.454180  1
  B  B6  1  0.500000  0.611006  0.954180  1
  B  B7  1  0.500000  0.388994  0.045820  1
  B  B8  1  0.500000  0.281416  0.316063  1
  B  B9  1  0.500000  0.718584  0.683937  1
  B  B10  1  0.500000  0.781416  0.183937  1
  B  B11  1  0.500000  0.218584  0.816063  1
  B  B12  1  0.500000  0.360008  0.467155  1
  B  B13  1  0.500000  0.639992  0.532845  1
  B  B14  1  0.500000  0.860008  0.032845  1
  B  B15  1  0.500000  0.139992  0.967155  1
  Co  Co16  1  0.000000  0.365436  0.911096  1
  Co  Co17  1  0.000000  0.634564  0.088904  1
  Co  Co18  1  0.000000  0.865436  0.588904  1
  Co  Co19  1  0.000000  0.134564  0.411096  1
  Gd  Gd20  1  0.000000  0.372486  0.650135  1
  Gd  Gd21  1  0.000000  0.627514  0.349865  1
  Gd  Gd22  1  0.000000  0.872486  0.849865  1
  Gd  Gd23  1  0.000000  0.127514  0.150135  1
